/*---------------------------------------------------------------------------*\
| =========                 |                                                 |
| \\      /  F ield         | OpenFOAM: The Open Source CFD Toolbox           |
|  \\    /   O peration     | Version:  1.6.x                                 |
|   \\  /    A nd           | Web:      www.OpenFOAM.org                      |
|    \\/     M anipulation  |                                                 |
\*---------------------------------------------------------------------------*/
Build  : 1.6.x-4162a707a6b2
Exec   : myDieselFoam -parallel
Date   : Mar 07 2010
Time   : 09:07:44
Host   : lcft.ita.br
PID    : 10177
Case   : /home/rodrigo/OpenFOAM/2D/spray_1
nProcs : 4
Slaves : 
3
(
lcft.ita.br.10178
lcft.ita.br.10179
lcft.ita.br.10180
)

Pstream initialized with:
    floatTransfer     : 0
    nProcsSimpleSum   : 0
    commsType         : nonBlocking
SigFpe : Enabling floating point exception trapping (FOAM_SIGFPE).

// * * * * * * * * * * * * * * * * * * * * * * * * * * * * * * * * * * * * * //
Create time

Create mesh for time = 0

// using new solver syntax:
rho
{
    solver          PCG;
    preconditioner  DIC;
    tolerance       1e-06;
    relTol          0;
}

// using new solver syntax:
U
{
    solver          PBiCG;
    preconditioner  DILU;
    tolerance       1e-06;
    relTol          0;
}

// using new solver syntax:
p
{
    solver          PCG;
    preconditioner  DIC;
    tolerance       1e-09;
    relTol          0;
}

// using new solver syntax:
Yi
{
    solver          PBiCG;
    preconditioner  DILU;
    tolerance       1e-06;
    relTol          0;
}

// using new solver syntax:
h
{
    solver          PBiCG;
    preconditioner  DILU;
    tolerance       1e-06;
    relTol          0;
}

// using new solver syntax:
k
{
    solver          PBiCG;
    preconditioner  DILU;
    tolerance       1e-06;
    relTol          0;
}

// using new solver syntax:
epsilon
{
    solver          PBiCG;
    preconditioner  DILU;
    tolerance       1e-06;
    relTol          0;
}


Reading thermophysicalProperties
Selecting psiChemistryModel ODEChemistryModel<gasThermoPhysics>
Selecting thermodynamics package hPsiMixtureThermo<reactingMixture<gasThermoPhysics>>
Selecting chemistryReader chemkinReader
Selecting chemistrySolver ode
Selecting ODE solver SIBS
ODEChemistryModel: Number of species = 5 and reactions = 1
Reading field U

Reading/calculating face flux field phi

Creating turbulence model.

Selecting turbulence model type RASModel
Selecting RAS turbulence model kEpsilon
kEpsilonCoeffs
{
    Cmu             0.09;
    C1              1.44;
    C2              1.92;
    alphaEps        0.76923;
    C3              -0.33;
    sigmak          1;
    sigmaEps        1.3;
    Prt             1;
}


Reading g
Constructing Spray
--> FOAM Warning : 
    From function Cloud<ParticleType>::initCloud(const bool checkClass)
    in file /home/neln/install/OpenFOAM/OpenFOAM-1.6.x/src/lagrangian/basic/lnInclude/CloudIO.C at line 51
    Cannot read particle positions file 
    "/home/rodrigo/OpenFOAM/2D/spray_1/processor0/0/lagrangian/defaultCloud"
    assuming the initial cloud contains 0 particles.
Selecting injectorType definedInjector
Selecting injectorType definedInjector
Selecting injectorType definedInjector
Selecting injectorType definedInjector
Selecting injectorType definedInjector
Selecting injectorType definedInjector
Selecting injectorType definedInjector
Selecting injectorType definedInjector
Selecting injectorType definedInjector
Selecting injectorType definedInjector
Selecting atomizationModel off
Selecting dragModel standardDragModel
Selecting evaporationModel standardEvaporationModel
Selecting heatTransferModel RanzMarshall
Selecting wallModel reflect
Selecting breakupModel ReitzDiwakar
Selecting collisionModel off
Selecting dispersionModel stochasticDispersionRAS
Selecting injectorModel hollowConeInjector
Selecting pdfType lognormal
Average Velocity for injector 0: 50 m/s, injection pressure = 13.415 bar
Average Velocity for injector 1: 50 m/s, injection pressure = 13.415 bar
Average Velocity for injector 2: 50 m/s, injection pressure = 13.415 bar
Average Velocity for injector 3: 50 m/s, injection pressure = 13.415 bar
Average Velocity for injector 4: 50 m/s, injection pressure = 13.415 bar
Average Velocity for injector 5: 50 m/s, injection pressure = 13.415 bar
Average Velocity for injector 6: 50 m/s, injection pressure = 13.415 bar
Average Velocity for injector 7: 50 m/s, injection pressure = 13.415 bar
Average Velocity for injector 8: 50 m/s, injection pressure = 13.415 bar
Average Velocity for injector 9: 50 m/s, injection pressure = 13.415 bar
Constructing two dimensional spray injection.Calculated angle of wedge is 5 deg.
Courant Number mean: 0.00217499 max: 0.295586

Starting time loop

Courant Number mean: 0.00217499 max: 0.295586
deltaT = 9.90099e-06
Reading/calculating field UMean

Reading/calculating field pMean

Reading/calculating field UPrime2Mean

Reading/calculating field pPrime2Mean

fieldAverage: starting averaging at time 0

Time = 9.90099e-06

Evolving Spray
diagonal:  Solving for rho, Initial residual = 0, Final residual = 0, No Iterations 0
DILUPBiCG:  Solving for Ux, Initial residual = 0.00026826, Final residual = 1.97595e-07, No Iterations 3
DILUPBiCG:  Solving for Uy, Initial residual = 0.977076, Final residual = 3.80214e-08, No Iterations 4
DILUPBiCG:  Solving for Uz, Initial residual = 4.49855e-05, Final residual = 2.1993e-07, No Iterations 1
DILUPBiCG:  Solving for iC3H8O, Initial residual = 0, Final residual = 0, No Iterations 0
DILUPBiCG:  Solving for O2, Initial residual = 0.000315811, Final residual = 1.15283e-07, No Iterations 2
DILUPBiCG:  Solving for CO2, Initial residual = 0, Final residual = 0, No Iterations 0
DILUPBiCG:  Solving for H2O, Initial residual = 1, Final residual = 6.98657e-07, No Iterations 5
DILUPBiCG:  Solving for h, Initial residual = 0.00029708, Final residual = 2.98914e-07, No Iterations 2
DICPCG:  Solving for p, Initial residual = 0.126826, Final residual = 7.45984e-10, No Iterations 45
DICPCG:  Solving for p, Initial residual = 6.50189e-10, Final residual = 6.50189e-10, No Iterations 0
diagonal:  Solving for rho, Initial residual = 0, Final residual = 0, No Iterations 0
time step continuity errors : sum local = 7.63668e-14, global = -2.92502e-17, cumulative = -2.92502e-17
DICPCG:  Solving for p, Initial residual = 0.00417847, Final residual = 7.97974e-10, No Iterations 36
DICPCG:  Solving for p, Initial residual = 8.46904e-10, Final residual = 8.46904e-10, No Iterations 0
diagonal:  Solving for rho, Initial residual = 0, Final residual = 0, No Iterations 0
time step continuity errors : sum local = 9.93762e-14, global = 5.68113e-15, cumulative = 5.65188e-15
DICPCG:  Solving for p, Initial residual = 0.000926316, Final residual = 7.75462e-10, No Iterations 32
DICPCG:  Solving for p, Initial residual = 8.22464e-10, Final residual = 8.22464e-10, No Iterations 0
diagonal:  Solving for rho, Initial residual = 0, Final residual = 0, No Iterations 0
time step continuity errors : sum local = 9.65882e-14, global = 6.07754e-15, cumulative = 1.17294e-14
DICPCG:  Solving for p, Initial residual = 0.00032761, Final residual = 9.54626e-10, No Iterations 30
DICPCG:  Solving for p, Initial residual = 9.98271e-10, Final residual = 9.98271e-10, No Iterations 0
diagonal:  Solving for rho, Initial residual = 0, Final residual = 0, No Iterations 0
time step continuity errors : sum local = 1.17274e-13, global = 8.72186e-15, cumulative = 2.04513e-14
DICPCG:  Solving for p, Initial residual = 0.000178728, Final residual = 7.39883e-10, No Iterations 28
DICPCG:  Solving for p, Initial residual = 7.83136e-10, Final residual = 7.83136e-10, No Iterations 0
diagonal:  Solving for rho, Initial residual = 0, Final residual = 0, No Iterations 0
time step continuity errors : sum local = 9.21464e-14, global = -2.97991e-15, cumulative = 1.74714e-14
DICPCG:  Solving for p, Initial residual = 0.000111105, Final residual = 8.82839e-10, No Iterations 25
DICPCG:  Solving for p, Initial residual = 9.23241e-10, Final residual = 9.23241e-10, No Iterations 0
diagonal:  Solving for rho, Initial residual = 0, Final residual = 0, No Iterations 0
time step continuity errors : sum local = 1.08668e-13, global = 1.6159e-15, cumulative = 1.90873e-14
DICPCG:  Solving for p, Initial residual = 7.57131e-05, Final residual = 7.73493e-10, No Iterations 24
DICPCG:  Solving for p, Initial residual = 8.12181e-10, Final residual = 8.12181e-10, No Iterations 0
diagonal:  Solving for rho, Initial residual = 0, Final residual = 0, No Iterations 0
time step continuity errors : sum local = 9.57956e-14, global = 4.16682e-16, cumulative = 1.9504e-14
DICPCG:  Solving for p, Initial residual = 5.42427e-05, Final residual = 6.80929e-10, No Iterations 23
DICPCG:  Solving for p, Initial residual = 7.18082e-10, Final residual = 7.18082e-10, No Iterations 0
diagonal:  Solving for rho, Initial residual = 0, Final residual = 0, No Iterations 0
time step continuity errors : sum local = 8.47578e-14, global = 4.11943e-15, cumulative = 2.36234e-14
DICPCG:  Solving for p, Initial residual = 4.04733e-05, Final residual = 9.30972e-10, No Iterations 21
DICPCG:  Solving for p, Initial residual = 9.6637e-10, Final residual = 9.6637e-10, No Iterations 0
diagonal:  Solving for rho, Initial residual = 0, Final residual = 0, No Iterations 0
time step continuity errors : sum local = 1.13914e-13, global = 8.25958e-16, cumulative = 2.44493e-14
DICPCG:  Solving for p, Initial residual = 3.09961e-05, Final residual = 8.19634e-10, No Iterations 20
DICPCG:  Solving for p, Initial residual = 8.53089e-10, Final residual = 8.53089e-10, No Iterations 0
diagonal:  Solving for rho, Initial residual = 0, Final residual = 0, No Iterations 0
time step continuity errors : sum local = 1.00721e-13, global = -7.53332e-15, cumulative = 1.6916e-14
DICPCG:  Solving for p, Initial residual = 2.43289e-05, Final residual = 7.33543e-10, No Iterations 19
DICPCG:  Solving for p, Initial residual = 7.66329e-10, Final residual = 7.66329e-10, No Iterations 0
diagonal:  Solving for rho, Initial residual = 0, Final residual = 0, No Iterations 0
time step continuity errors : sum local = 9.0545e-14, global = -3.11193e-15, cumulative = 1.38041e-14
DICPCG:  Solving for p, Initial residual = 1.93665e-05, Final residual = 8.98777e-10, No Iterations 17
DICPCG:  Solving for p, Initial residual = 9.30389e-10, Final residual = 9.30389e-10, No Iterations 0
diagonal:  Solving for rho, Initial residual = 0, Final residual = 0, No Iterations 0
time step continuity errors : sum local = 1.09841e-13, global = -1.52107e-14, cumulative = -1.40659e-15
DICPCG:  Solving for p, Initial residual = 1.57147e-05, Final residual = 8.57244e-10, No Iterations 16
DICPCG:  Solving for p, Initial residual = 8.87851e-10, Final residual = 8.87851e-10, No Iterations 0
diagonal:  Solving for rho, Initial residual = 0, Final residual = 0, No Iterations 0
time step continuity errors : sum local = 1.04842e-13, global = -2.22195e-14, cumulative = -2.36261e-14
DICPCG:  Solving for p, Initial residual = 1.28822e-05, Final residual = 8.20105e-10, No Iterations 15
DICPCG:  Solving for p, Initial residual = 8.5032e-10, Final residual = 8.5032e-10, No Iterations 0
diagonal:  Solving for rho, Initial residual = 0, Final residual = 0, No Iterations 0
time step continuity errors : sum local = 1.00471e-13, global = -7.22615e-15, cumulative = -3.08523e-14
DICPCG:  Solving for p, Initial residual = 1.06789e-05, Final residual = 9.52696e-10, No Iterations 14
DICPCG:  Solving for p, Initial residual = 9.82287e-10, Final residual = 9.82287e-10, No Iterations 0
diagonal:  Solving for rho, Initial residual = 0, Final residual = 0, No Iterations 0
time step continuity errors : sum local = 1.15961e-13, global = 6.37151e-15, cumulative = -2.44808e-14
DICPCG:  Solving for p, Initial residual = 8.93994e-06, Final residual = 7.86507e-10, No Iterations 13
DICPCG:  Solving for p, Initial residual = 8.16062e-10, Final residual = 8.16062e-10, No Iterations 0
diagonal:  Solving for rho, Initial residual = 0, Final residual = 0, No Iterations 0
time step continuity errors : sum local = 9.65099e-14, global = -1.09896e-15, cumulative = -2.55797e-14
DICPCG:  Solving for p, Initial residual = 7.52695e-06, Final residual = 5.04291e-10, No Iterations 13
DICPCG:  Solving for p, Initial residual = 5.34127e-10, Final residual = 5.34127e-10, No Iterations 0
diagonal:  Solving for rho, Initial residual = 0, Final residual = 0, No Iterations 0
time step continuity errors : sum local = 6.34323e-14, global = -1.8887e-15, cumulative = -2.74684e-14
DICPCG:  Solving for p, Initial residual = 6.40709e-06, Final residual = 8.63704e-10, No Iterations 11
DICPCG:  Solving for p, Initial residual = 8.9244e-10, Final residual = 8.9244e-10, No Iterations 0
diagonal:  Solving for rho, Initial residual = 0, Final residual = 0, No Iterations 0
time step continuity errors : sum local = 1.05481e-13, global = -4.50385e-15, cumulative = -3.19723e-14
DICPCG:  Solving for p, Initial residual = 5.44406e-06, Final residual = 5.48786e-10, No Iterations 11
DICPCG:  Solving for p, Initial residual = 5.77388e-10, Final residual = 5.77388e-10, No Iterations 0
diagonal:  Solving for rho, Initial residual = 0, Final residual = 0, No Iterations 0
time step continuity errors : sum local = 6.8495e-14, global = -1.35811e-15, cumulative = -3.33304e-14
DICPCG:  Solving for p, Initial residual = 4.68675e-06, Final residual = 8.94398e-10, No Iterations 10
DICPCG:  Solving for p, Initial residual = 9.21006e-10, Final residual = 9.21006e-10, No Iterations 0
diagonal:  Solving for rho, Initial residual = 0, Final residual = 0, No Iterations 0
time step continuity errors : sum local = 1.08937e-13, global = 8.27088e-16, cumulative = -3.25033e-14
DILUPBiCG:  Solving for epsilon, Initial residual = 0.000455607, Final residual = 1.30727e-07, No Iterations 2
DILUPBiCG:  Solving for k, Initial residual = 0.00012769, Final residual = 3.47186e-07, No Iterations 2

Number of parcels in system.... | 13
Injected liquid mass........... | 0.00435622 mg
Liquid Mass in system.......... | 0.00566299 mg
SMD, Dmax...................... | 28.4508 mu, 71.812 mu
Added gas mass................. | 0.198441 mg
Evaporation Continuity Error... | 0.199748 mg
ExecutionTime = 4.93 s  ClockTime = 5 s
rho max/min : 0.932001 0.929515

Courant Number mean: 0.00230866 max: 0.2483
deltaT = 9.90099e-06
 MassFlows:   inlet = -0.000452778  outlet = 0.000414978
Calculating averages

Time = 1.9802e-05

Evolving Spray
diagonal:  Solving for rho, Initial residual = 0, Final residual = 0, No Iterations 0
DILUPBiCG:  Solving for Ux, Initial residual = 0.00274952, Final residual = 8.74296e-08, No Iterations 4
DILUPBiCG:  Solving for Uy, Initial residual = 0.00250431, Final residual = 5.11793e-07, No Iterations 2
DILUPBiCG:  Solving for Uz, Initial residual = 8.58399e-05, Final residual = 4.90715e-07, No Iterations 1
DILUPBiCG:  Solving for iC3H8O, Initial residual = 0, Final residual = 0, No Iterations 0
DILUPBiCG:  Solving for O2, Initial residual = 0.000250166, Final residual = 9.14185e-07, No Iterations 2
DILUPBiCG:  Solving for CO2, Initial residual = 0, Final residual = 0, No Iterations 0
DILUPBiCG:  Solving for H2O, Initial residual = 0.00202772, Final residual = 8.18995e-08, No Iterations 3
DILUPBiCG:  Solving for h, Initial residual = 0.000293924, Final residual = 6.21233e-07, No Iterations 2
DICPCG:  Solving for p, Initial residual = 0.121071, Final residual = 8.80355e-10, No Iterations 39
DICPCG:  Solving for p, Initial residual = 3.96755e-10, Final residual = 3.96755e-10, No Iterations 0
diagonal:  Solving for rho, Initial residual = 0, Final residual = 0, No Iterations 0
time step continuity errors : sum local = 1.1463e-13, global = 1.14474e-15, cumulative = -3.13586e-14
DICPCG:  Solving for p, Initial residual = 0.000758798, Final residual = 7.60481e-10, No Iterations 29
DICPCG:  Solving for p, Initial residual = 7.69464e-10, Final residual = 7.69464e-10, No Iterations 0
diagonal:  Solving for rho, Initial residual = 0, Final residual = 0, No Iterations 0
time step continuity errors : sum local = 2.2272e-13, global = -2.03227e-15, cumulative = -3.33908e-14
DICPCG:  Solving for p, Initial residual = 0.00021197, Final residual = 7.30452e-10, No Iterations 26
DICPCG:  Solving for p, Initial residual = 7.40251e-10, Final residual = 7.40251e-10, No Iterations 0
diagonal:  Solving for rho, Initial residual = 0, Final residual = 0, No Iterations 0
time step continuity errors : sum local = 2.14483e-13, global = 9.46136e-15, cumulative = -2.39295e-14
DICPCG:  Solving for p, Initial residual = 7.15421e-05, Final residual = 8.77396e-10, No Iterations 24
DICPCG:  Solving for p, Initial residual = 8.87407e-10, Final residual = 8.87407e-10, No Iterations 0
diagonal:  Solving for rho, Initial residual = 0, Final residual = 0, No Iterations 0
time step continuity errors : sum local = 2.57233e-13, global = -3.028e-15, cumulative = -2.69575e-14
DICPCG:  Solving for p, Initial residual = 3.96401e-05, Final residual = 8.90497e-10, No Iterations 22
DICPCG:  Solving for p, Initial residual = 9.00085e-10, Final residual = 9.00085e-10, No Iterations 0
diagonal:  Solving for rho, Initial residual = 0, Final residual = 0, No Iterations 0
time step continuity errors : sum local = 2.60992e-13, global = 1.2482e-14, cumulative = -1.44755e-14
DICPCG:  Solving for p, Initial residual = 2.49868e-05, Final residual = 8.98788e-10, No Iterations 20
DICPCG:  Solving for p, Initial residual = 9.07929e-10, Final residual = 9.07929e-10, No Iterations 0
diagonal:  Solving for rho, Initial residual = 0, Final residual = 0, No Iterations 0
time step continuity errors : sum local = 2.63387e-13, global = -1.88194e-15, cumulative = -1.63574e-14
DICPCG:  Solving for p, Initial residual = 1.70128e-05, Final residual = 5.76854e-10, No Iterations 19
DICPCG:  Solving for p, Initial residual = 5.86107e-10, Final residual = 5.86107e-10, No Iterations 0
diagonal:  Solving for rho, Initial residual = 0, Final residual = 0, No Iterations 0
time step continuity errors : sum local = 1.70198e-13, global = -1.85891e-14, cumulative = -3.49465e-14
DICPCG:  Solving for p, Initial residual = 1.21508e-05, Final residual = 8.22602e-10, No Iterations 17
DICPCG:  Solving for p, Initial residual = 8.311e-10, Final residual = 8.311e-10, No Iterations 0
diagonal:  Solving for rho, Initial residual = 0, Final residual = 0, No Iterations 0
time step continuity errors : sum local = 2.41289e-13, global = -5.77624e-14, cumulative = -9.27089e-14
DICPCG:  Solving for p, Initial residual = 8.99995e-06, Final residual = 9.06943e-10, No Iterations 16
DICPCG:  Solving for p, Initial residual = 9.14676e-10, Final residual = 9.14676e-10, No Iterations 0
diagonal:  Solving for rho, Initial residual = 0, Final residual = 0, No Iterations 0
time step continuity errors : sum local = 2.65531e-13, global = -5.06588e-14, cumulative = -1.43368e-13
DICPCG:  Solving for p, Initial residual = 6.85133e-06, Final residual = 5.60123e-10, No Iterations 15
DICPCG:  Solving for p, Initial residual = 5.68047e-10, Final residual = 5.68047e-10, No Iterations 0
diagonal:  Solving for rho, Initial residual = 0, Final residual = 0, No Iterations 0
time step continuity errors : sum local = 1.651e-13, global = -4.58968e-14, cumulative = -1.89265e-13
DICPCG:  Solving for p, Initial residual = 5.33231e-06, Final residual = 5.76639e-10, No Iterations 13
DICPCG:  Solving for p, Initial residual = 5.84358e-10, Final residual = 5.84358e-10, No Iterations 0
diagonal:  Solving for rho, Initial residual = 0, Final residual = 0, No Iterations 0
time step continuity errors : sum local = 1.69861e-13, global = -2.35039e-14, cumulative = -2.12768e-13
DICPCG:  Solving for p, Initial residual = 4.22091e-06, Final residual = 8.98586e-10, No Iterations 11
DICPCG:  Solving for p, Initial residual = 9.05775e-10, Final residual = 9.05775e-10, No Iterations 0
diagonal:  Solving for rho, Initial residual = 0, Final residual = 0, No Iterations 0
time step continuity errors : sum local = 2.63084e-13, global = 4.3973e-14, cumulative = -1.68795e-13
DICPCG:  Solving for p, Initial residual = 3.38537e-06, Final residual = 7.76101e-10, No Iterations 10
DICPCG:  Solving for p, Initial residual = 7.8302e-10, Final residual = 7.8302e-10, No Iterations 0
diagonal:  Solving for rho, Initial residual = 0, Final residual = 0, No Iterations 0
time step continuity errors : sum local = 2.27509e-13, global = 4.99365e-15, cumulative = -1.63802e-13
DICPCG:  Solving for p, Initial residual = 2.74264e-06, Final residual = 5.75634e-10, No Iterations 9
DICPCG:  Solving for p, Initial residual = 5.82648e-10, Final residual = 5.82648e-10, No Iterations 0
diagonal:  Solving for rho, Initial residual = 0, Final residual = 0, No Iterations 0
time step continuity errors : sum local = 1.69427e-13, global = -1.48519e-14, cumulative = -1.78654e-13
DICPCG:  Solving for p, Initial residual = 2.23893e-06, Final residual = 6.87171e-10, No Iterations 8
DICPCG:  Solving for p, Initial residual = 6.94005e-10, Final residual = 6.94005e-10, No Iterations 0
diagonal:  Solving for rho, Initial residual = 0, Final residual = 0, No Iterations 0
time step continuity errors : sum local = 2.01772e-13, global = 1.6929e-14, cumulative = -1.61725e-13
DICPCG:  Solving for p, Initial residual = 1.8388e-06, Final residual = 7.64563e-10, No Iterations 7
DICPCG:  Solving for p, Initial residual = 7.71371e-10, Final residual = 7.71371e-10, No Iterations 0
diagonal:  Solving for rho, Initial residual = 0, Final residual = 0, No Iterations 0
time step continuity errors : sum local = 2.24177e-13, global = 1.23376e-14, cumulative = -1.49387e-13
DICPCG:  Solving for p, Initial residual = 1.51706e-06, Final residual = 4.60894e-10, No Iterations 7
DICPCG:  Solving for p, Initial residual = 4.67681e-10, Final residual = 4.67681e-10, No Iterations 0
diagonal:  Solving for rho, Initial residual = 0, Final residual = 0, No Iterations 0
time step continuity errors : sum local = 1.36173e-13, global = 7.49086e-15, cumulative = -1.41896e-13
DICPCG:  Solving for p, Initial residual = 1.25643e-06, Final residual = 2.69118e-10, No Iterations 7
DICPCG:  Solving for p, Initial residual = 2.76103e-10, Final residual = 2.76103e-10, No Iterations 0
diagonal:  Solving for rho, Initial residual = 0, Final residual = 0, No Iterations 0
time step continuity errors : sum local = 8.06408e-14, global = 2.48303e-15, cumulative = -1.39413e-13
DICPCG:  Solving for p, Initial residual = 1.0434e-06, Final residual = 8.45792e-10, No Iterations 5
DICPCG:  Solving for p, Initial residual = 8.52363e-10, Final residual = 8.52363e-10, No Iterations 0
diagonal:  Solving for rho, Initial residual = 0, Final residual = 0, No Iterations 0
time step continuity errors : sum local = 2.477e-13, global = -6.73959e-14, cumulative = -2.06809e-13
DICPCG:  Solving for p, Initial residual = 8.6888e-07, Final residual = 2.77485e-10, No Iterations 5
DICPCG:  Solving for p, Initial residual = 2.84256e-10, Final residual = 2.84256e-10, No Iterations 0
diagonal:  Solving for rho, Initial residual = 0, Final residual = 0, No Iterations 0
time step continuity errors : sum local = 8.30278e-14, global = -1.16624e-14, cumulative = -2.18471e-13
DILUPBiCG:  Solving for epsilon, Initial residual = 0.000445696, Final residual = 8.35262e-07, No Iterations 1
DILUPBiCG:  Solving for k, Initial residual = 0.00012433, Final residual = 7.25085e-07, No Iterations 1

Number of parcels in system.... | 26
Injected liquid mass........... | 0.00871244 mg
Liquid Mass in system.......... | 0.0119497 mg
SMD, Dmax...................... | 21.0996 mu, 71.8121 mu
Added gas mass................. | 0.48834 mg
Evaporation Continuity Error... | 0.491578 mg
ExecutionTime = 9 s  ClockTime = 9 s
rho max/min : 0.936103 0.927298

Courant Number mean: 0.00235306 max: 0.279847
deltaT = 9.90099e-06
 MassFlows:   inlet = -0.000452778  outlet = 0.000418891
Calculating averages

Time = 2.9703e-05

Evolving Spray
diagonal:  Solving for rho, Initial residual = 0, Final residual = 0, No Iterations 0
DILUPBiCG:  Solving for Ux, Initial residual = 0.0053135, Final residual = 2.4391e-07, No Iterations 4
DILUPBiCG:  Solving for Uy, Initial residual = 0.00255586, Final residual = 3.87753e-07, No Iterations 2
DILUPBiCG:  Solving for Uz, Initial residual = 0.000142923, Final residual = 6.09034e-07, No Iterations 1
DILUPBiCG:  Solving for iC3H8O, Initial residual = 0, Final residual = 0, No Iterations 0
DILUPBiCG:  Solving for O2, Initial residual = 0.000209101, Final residual = 4.91889e-08, No Iterations 3
DILUPBiCG:  Solving for CO2, Initial residual = 0, Final residual = 0, No Iterations 0
DILUPBiCG:  Solving for H2O, Initial residual = 0.00101365, Final residual = 8.84503e-07, No Iterations 2
DILUPBiCG:  Solving for h, Initial residual = 0.000312467, Final residual = 4.71179e-08, No Iterations 3
DICPCG:  Solving for p, Initial residual = 0.0564625, Final residual = 9.70547e-10, No Iterations 37
DICPCG:  Solving for p, Initial residual = 5.65902e-10, Final residual = 5.65902e-10, No Iterations 0
diagonal:  Solving for rho, Initial residual = 0, Final residual = 0, No Iterations 0
time step continuity errors : sum local = 2.92385e-13, global = 2.00413e-14, cumulative = -1.9843e-13
DICPCG:  Solving for p, Initial residual = 0.000415525, Final residual = 8.89257e-10, No Iterations 28
DICPCG:  Solving for p, Initial residual = 8.93396e-10, Final residual = 8.93396e-10, No Iterations 0
diagonal:  Solving for rho, Initial residual = 0, Final residual = 0, No Iterations 0
time step continuity errors : sum local = 4.62135e-13, global = -1.90586e-14, cumulative = -2.17489e-13
DICPCG:  Solving for p, Initial residual = 0.000114952, Final residual = 9.31038e-10, No Iterations 25
DICPCG:  Solving for p, Initial residual = 9.36146e-10, Final residual = 9.36146e-10, No Iterations 0
diagonal:  Solving for rho, Initial residual = 0, Final residual = 0, No Iterations 0
time step continuity errors : sum local = 4.84483e-13, global = -1.09033e-15, cumulative = -2.18579e-13
DICPCG:  Solving for p, Initial residual = 3.69315e-05, Final residual = 8.30407e-10, No Iterations 22
DICPCG:  Solving for p, Initial residual = 8.35401e-10, Final residual = 8.35401e-10, No Iterations 0
diagonal:  Solving for rho, Initial residual = 0, Final residual = 0, No Iterations 0
time step continuity errors : sum local = 4.32433e-13, global = 1.68661e-14, cumulative = -2.01713e-13
DICPCG:  Solving for p, Initial residual = 1.98438e-05, Final residual = 6.28384e-10, No Iterations 21
DICPCG:  Solving for p, Initial residual = 6.33784e-10, Final residual = 6.33784e-10, No Iterations 0
diagonal:  Solving for rho, Initial residual = 0, Final residual = 0, No Iterations 0
time step continuity errors : sum local = 3.28215e-13, global = 1.3372e-14, cumulative = -1.88341e-13
DICPCG:  Solving for p, Initial residual = 1.20387e-05, Final residual = 7.97407e-10, No Iterations 19
DICPCG:  Solving for p, Initial residual = 8.02661e-10, Final residual = 8.02661e-10, No Iterations 0
diagonal:  Solving for rho, Initial residual = 0, Final residual = 0, No Iterations 0
time step continuity errors : sum local = 4.1569e-13, global = 3.06843e-14, cumulative = -1.57657e-13
DICPCG:  Solving for p, Initial residual = 7.84513e-06, Final residual = 7.51215e-10, No Iterations 18
DICPCG:  Solving for p, Initial residual = 7.56061e-10, Final residual = 7.56061e-10, No Iterations 0
diagonal:  Solving for rho, Initial residual = 0, Final residual = 0, No Iterations 0
time step continuity errors : sum local = 3.91635e-13, global = -2.29796e-16, cumulative = -1.57887e-13
DICPCG:  Solving for p, Initial residual = 5.37901e-06, Final residual = 6.39163e-10, No Iterations 17
DICPCG:  Solving for p, Initial residual = 6.4391e-10, Final residual = 6.4391e-10, No Iterations 0
diagonal:  Solving for rho, Initial residual = 0, Final residual = 0, No Iterations 0
time step continuity errors : sum local = 3.33613e-13, global = -3.9e-14, cumulative = -1.96887e-13
DICPCG:  Solving for p, Initial residual = 3.84432e-06, Final residual = 7.16678e-10, No Iterations 16
DICPCG:  Solving for p, Initial residual = 7.2106e-10, Final residual = 7.2106e-10, No Iterations 0
diagonal:  Solving for rho, Initial residual = 0, Final residual = 0, No Iterations 0
time step continuity errors : sum local = 3.73582e-13, global = -2.91404e-14, cumulative = -2.26027e-13
DICPCG:  Solving for p, Initial residual = 2.83999e-06, Final residual = 6.42129e-10, No Iterations 15
DICPCG:  Solving for p, Initial residual = 6.46434e-10, Final residual = 6.46434e-10, No Iterations 0
diagonal:  Solving for rho, Initial residual = 0, Final residual = 0, No Iterations 0
time step continuity errors : sum local = 3.35025e-13, global = -3.44038e-14, cumulative = -2.60431e-13
DICPCG:  Solving for p, Initial residual = 2.15482e-06, Final residual = 7.32631e-10, No Iterations 13
DICPCG:  Solving for p, Initial residual = 7.36733e-10, Final residual = 7.36733e-10, No Iterations 0
diagonal:  Solving for rho, Initial residual = 0, Final residual = 0, No Iterations 0
time step continuity errors : sum local = 3.81812e-13, global = -1.04525e-13, cumulative = -3.64956e-13
DICPCG:  Solving for p, Initial residual = 1.67003e-06, Final residual = 9.4498e-10, No Iterations 11
DICPCG:  Solving for p, Initial residual = 9.48936e-10, Final residual = 9.48936e-10, No Iterations 0
diagonal:  Solving for rho, Initial residual = 0, Final residual = 0, No Iterations 0
time step continuity errors : sum local = 4.91679e-13, global = 2.87459e-14, cumulative = -3.3621e-13
DICPCG:  Solving for p, Initial residual = 1.31586e-06, Final residual = 6.81118e-10, No Iterations 10
DICPCG:  Solving for p, Initial residual = 6.85127e-10, Final residual = 6.85127e-10, No Iterations 0
diagonal:  Solving for rho, Initial residual = 0, Final residual = 0, No Iterations 0
time step continuity errors : sum local = 3.55099e-13, global = 3.90731e-16, cumulative = -3.35819e-13
DICPCG:  Solving for p, Initial residual = 1.05048e-06, Final residual = 7.29046e-10, No Iterations 9
DICPCG:  Solving for p, Initial residual = 7.32878e-10, Final residual = 7.32878e-10, No Iterations 0
diagonal:  Solving for rho, Initial residual = 0, Final residual = 0, No Iterations 0
time step continuity errors : sum local = 3.79846e-13, global = -6.6516e-14, cumulative = -4.02335e-13
DICPCG:  Solving for p, Initial residual = 8.47196e-07, Final residual = 7.54144e-10, No Iterations 8
DICPCG:  Solving for p, Initial residual = 7.57934e-10, Final residual = 7.57934e-10, No Iterations 0
diagonal:  Solving for rho, Initial residual = 0, Final residual = 0, No Iterations 0
time step continuity errors : sum local = 3.92833e-13, global = 1.37767e-14, cumulative = -3.88559e-13
DICPCG:  Solving for p, Initial residual = 6.88837e-07, Final residual = 7.53512e-10, No Iterations 7
DICPCG:  Solving for p, Initial residual = 7.57224e-10, Final residual = 7.57224e-10, No Iterations 0
diagonal:  Solving for rho, Initial residual = 0, Final residual = 0, No Iterations 0
time step continuity errors : sum local = 3.92465e-13, global = 2.2564e-14, cumulative = -3.65995e-13
DICPCG:  Solving for p, Initial residual = 5.63826e-07, Final residual = 4.54588e-10, No Iterations 7
DICPCG:  Solving for p, Initial residual = 4.58372e-10, Final residual = 4.58372e-10, No Iterations 0
diagonal:  Solving for rho, Initial residual = 0, Final residual = 0, No Iterations 0
time step continuity errors : sum local = 2.37788e-13, global = 1.4177e-14, cumulative = -3.51818e-13
DICPCG:  Solving for p, Initial residual = 4.63973e-07, Final residual = 9.62651e-10, No Iterations 5
DICPCG:  Solving for p, Initial residual = 9.66253e-10, Final residual = 9.66253e-10, No Iterations 0
diagonal:  Solving for rho, Initial residual = 0, Final residual = 0, No Iterations 0
time step continuity errors : sum local = 5.00693e-13, global = -9.63441e-14, cumulative = -4.48162e-13
DICPCG:  Solving for p, Initial residual = 3.83741e-07, Final residual = 9.04878e-10, No Iterations 4
DICPCG:  Solving for p, Initial residual = 9.08348e-10, Final residual = 9.08348e-10, No Iterations 0
diagonal:  Solving for rho, Initial residual = 0, Final residual = 0, No Iterations 0
time step continuity errors : sum local = 4.70771e-13, global = 5.14495e-14, cumulative = -3.96712e-13
DICPCG:  Solving for p, Initial residual = 3.17872e-07, Final residual = 6.03549e-10, No Iterations 4
DICPCG:  Solving for p, Initial residual = 6.07097e-10, Final residual = 6.07097e-10, No Iterations 0
diagonal:  Solving for rho, Initial residual = 0, Final residual = 0, No Iterations 0
time step continuity errors : sum local = 3.14801e-13, global = 5.17139e-14, cumulative = -3.44998e-13
DILUPBiCG:  Solving for epsilon, Initial residual = 0.000437571, Final residual = 7.87093e-07, No Iterations 1
DILUPBiCG:  Solving for k, Initial residual = 0.000123174, Final residual = 7.1313e-07, No Iterations 1

Number of parcels in system.... | 39
Injected liquid mass........... | 0.0130687 mg
Liquid Mass in system.......... | 0.0182361 mg
SMD, Dmax...................... | 21.1832 mu, 71.8123 mu
Added gas mass................. | 0.795582 mg
Evaporation Continuity Error... | 0.80075 mg
ExecutionTime = 13.03 s  ClockTime = 13 s
rho max/min : 0.939437 0.924747

Courant Number mean: 0.00236027 max: 0.288875
deltaT = 9.90099e-06
 MassFlows:   inlet = -0.000452778  outlet = 0.000420302
Calculating averages

Time = 3.9604e-05

Evolving Spray
diagonal:  Solving for rho, Initial residual = 0, Final residual = 0, No Iterations 0
DILUPBiCG:  Solving for Ux, Initial residual = 0.00727227, Final residual = 3.90194e-07, No Iterations 4
DILUPBiCG:  Solving for Uy, Initial residual = 0.00223693, Final residual = 5.11912e-07, No Iterations 2
DILUPBiCG:  Solving for Uz, Initial residual = 0.000207622, Final residual = 6.85601e-07, No Iterations 1
DILUPBiCG:  Solving for iC3H8O, Initial residual = 0, Final residual = 0, No Iterations 0
DILUPBiCG:  Solving for O2, Initial residual = 0.00017876, Final residual = 5.53982e-08, No Iterations 3
DILUPBiCG:  Solving for CO2, Initial residual = 0, Final residual = 0, No Iterations 0
DILUPBiCG:  Solving for H2O, Initial residual = 0.000719027, Final residual = 4.87812e-07, No Iterations 2
DILUPBiCG:  Solving for h, Initial residual = 0.000325071, Final residual = 2.66855e-08, No Iterations 3
DICPCG:  Solving for p, Initial residual = 0.0324109, Final residual = 7.23177e-10, No Iterations 36
DICPCG:  Solving for p, Initial residual = 4.91579e-10, Final residual = 4.91579e-10, No Iterations 0
diagonal:  Solving for rho, Initial residual = 0, Final residual = 0, No Iterations 0
time step continuity errors : sum local = 3.82691e-13, global = 2.86546e-14, cumulative = -3.16344e-13
DICPCG:  Solving for p, Initial residual = 0.000260884, Final residual = 7.69001e-10, No Iterations 27
DICPCG:  Solving for p, Initial residual = 7.72187e-10, Final residual = 7.72187e-10, No Iterations 0
diagonal:  Solving for rho, Initial residual = 0, Final residual = 0, No Iterations 0
time step continuity errors : sum local = 6.01241e-13, global = -4.1744e-15, cumulative = -3.20518e-13
DICPCG:  Solving for p, Initial residual = 7.64425e-05, Final residual = 6.97085e-10, No Iterations 24
DICPCG:  Solving for p, Initial residual = 7.00476e-10, Final residual = 7.00476e-10, No Iterations 0
diagonal:  Solving for rho, Initial residual = 0, Final residual = 0, No Iterations 0
time step continuity errors : sum local = 5.45425e-13, global = -3.59253e-15, cumulative = -3.24111e-13
DICPCG:  Solving for p, Initial residual = 2.27046e-05, Final residual = 6.02968e-10, No Iterations 22
DICPCG:  Solving for p, Initial residual = 6.06252e-10, Final residual = 6.06252e-10, No Iterations 0
diagonal:  Solving for rho, Initial residual = 0, Final residual = 0, No Iterations 0
time step continuity errors : sum local = 4.72143e-13, global = 3.70207e-14, cumulative = -2.8709e-13
DICPCG:  Solving for p, Initial residual = 1.11726e-05, Final residual = 6.61698e-10, No Iterations 20
DICPCG:  Solving for p, Initial residual = 6.64931e-10, Final residual = 6.64931e-10, No Iterations 0
diagonal:  Solving for rho, Initial residual = 0, Final residual = 0, No Iterations 0
time step continuity errors : sum local = 5.17832e-13, global = -6.57931e-15, cumulative = -2.93669e-13
DICPCG:  Solving for p, Initial residual = 6.22101e-06, Final residual = 8.9288e-10, No Iterations 18
DICPCG:  Solving for p, Initial residual = 8.96032e-10, Final residual = 8.96032e-10, No Iterations 0
diagonal:  Solving for rho, Initial residual = 0, Final residual = 0, No Iterations 0
time step continuity errors : sum local = 6.97798e-13, global = 5.30619e-14, cumulative = -2.40607e-13
DICPCG:  Solving for p, Initial residual = 3.77202e-06, Final residual = 8.25011e-10, No Iterations 17
DICPCG:  Solving for p, Initial residual = 8.28139e-10, Final residual = 8.28139e-10, No Iterations 0
diagonal:  Solving for rho, Initial residual = 0, Final residual = 0, No Iterations 0
time step continuity errors : sum local = 6.45012e-13, global = -6.99959e-14, cumulative = -3.10603e-13
DICPCG:  Solving for p, Initial residual = 2.38025e-06, Final residual = 5.98039e-10, No Iterations 16
DICPCG:  Solving for p, Initial residual = 6.01198e-10, Final residual = 6.01198e-10, No Iterations 0
diagonal:  Solving for rho, Initial residual = 0, Final residual = 0, No Iterations 0
time step continuity errors : sum local = 4.68359e-13, global = -3.53985e-14, cumulative = -3.46002e-13
DICPCG:  Solving for p, Initial residual = 1.55779e-06, Final residual = 8.74387e-10, No Iterations 14
DICPCG:  Solving for p, Initial residual = 8.77266e-10, Final residual = 8.77266e-10, No Iterations 0
diagonal:  Solving for rho, Initial residual = 0, Final residual = 0, No Iterations 0
time step continuity errors : sum local = 6.83331e-13, global = -5.91972e-14, cumulative = -4.05199e-13
DICPCG:  Solving for p, Initial residual = 1.04056e-06, Final residual = 8.64694e-10, No Iterations 13
DICPCG:  Solving for p, Initial residual = 8.67337e-10, Final residual = 8.67337e-10, No Iterations 0
diagonal:  Solving for rho, Initial residual = 0, Final residual = 0, No Iterations 0
time step continuity errors : sum local = 6.75691e-13, global = -2.0673e-13, cumulative = -6.11929e-13
DICPCG:  Solving for p, Initial residual = 7.12209e-07, Final residual = 5.78269e-10, No Iterations 12
DICPCG:  Solving for p, Initial residual = 5.80908e-10, Final residual = 5.80908e-10, No Iterations 0
diagonal:  Solving for rho, Initial residual = 0, Final residual = 0, No Iterations 0
time step continuity errors : sum local = 4.5274e-13, global = -1.08612e-13, cumulative = -7.20541e-13
DICPCG:  Solving for p, Initial residual = 4.93615e-07, Final residual = 6.83499e-10, No Iterations 10
DICPCG:  Solving for p, Initial residual = 6.86075e-10, Final residual = 6.86075e-10, No Iterations 0
diagonal:  Solving for rho, Initial residual = 0, Final residual = 0, No Iterations 0
time step continuity errors : sum local = 5.34587e-13, global = 2.97848e-14, cumulative = -6.90756e-13
DICPCG:  Solving for p, Initial residual = 3.48359e-07, Final residual = 8.87433e-10, No Iterations 8
DICPCG:  Solving for p, Initial residual = 8.89902e-10, Final residual = 8.89902e-10, No Iterations 0
diagonal:  Solving for rho, Initial residual = 0, Final residual = 0, No Iterations 0
time step continuity errors : sum local = 6.93319e-13, global = -6.96353e-14, cumulative = -7.60391e-13
DICPCG:  Solving for p, Initial residual = 2.48054e-07, Final residual = 5.48595e-10, No Iterations 8
DICPCG:  Solving for p, Initial residual = 5.51126e-10, Final residual = 5.51126e-10, No Iterations 0
diagonal:  Solving for rho, Initial residual = 0, Final residual = 0, No Iterations 0
time step continuity errors : sum local = 4.29577e-13, global = -2.50812e-14, cumulative = -7.85472e-13
DICPCG:  Solving for p, Initial residual = 1.79082e-07, Final residual = 7.30101e-10, No Iterations 7
DICPCG:  Solving for p, Initial residual = 7.32471e-10, Final residual = 7.32471e-10, No Iterations 0
diagonal:  Solving for rho, Initial residual = 0, Final residual = 0, No Iterations 0
time step continuity errors : sum local = 5.70767e-13, global = 8.25005e-14, cumulative = -7.02972e-13
DICPCG:  Solving for p, Initial residual = 1.30026e-07, Final residual = 6.63105e-10, No Iterations 6
DICPCG:  Solving for p, Initial residual = 6.65422e-10, Final residual = 6.65422e-10, No Iterations 0
diagonal:  Solving for rho, Initial residual = 0, Final residual = 0, No Iterations 0
time step continuity errors : sum local = 5.18597e-13, global = -1.07223e-13, cumulative = -8.10195e-13
DICPCG:  Solving for p, Initial residual = 9.56129e-08, Final residual = 9.38555e-10, No Iterations 5
DICPCG:  Solving for p, Initial residual = 9.40864e-10, Final residual = 9.40864e-10, No Iterations 0
diagonal:  Solving for rho, Initial residual = 0, Final residual = 0, No Iterations 0
time step continuity errors : sum local = 7.33039e-13, global = -8.15937e-14, cumulative = -8.91789e-13
DICPCG:  Solving for p, Initial residual = 7.10151e-08, Final residual = 8.78446e-10, No Iterations 4
DICPCG:  Solving for p, Initial residual = 8.80675e-10, Final residual = 8.80675e-10, No Iterations 0
diagonal:  Solving for rho, Initial residual = 0, Final residual = 0, No Iterations 0
time step continuity errors : sum local = 6.86229e-13, global = 4.31917e-14, cumulative = -8.48598e-13
DICPCG:  Solving for p, Initial residual = 5.27339e-08, Final residual = 3.80376e-10, No Iterations 4
DICPCG:  Solving for p, Initial residual = 3.82713e-10, Final residual = 3.82713e-10, No Iterations 0
diagonal:  Solving for rho, Initial residual = 0, Final residual = 0, No Iterations 0
time step continuity errors : sum local = 2.98535e-13, global = 2.91649e-14, cumulative = -8.19433e-13
DICPCG:  Solving for p, Initial residual = 3.98428e-08, Final residual = 9.85821e-10, No Iterations 2
DICPCG:  Solving for p, Initial residual = 9.8789e-10, Final residual = 9.8789e-10, No Iterations 0
diagonal:  Solving for rho, Initial residual = 0, Final residual = 0, No Iterations 0
time step continuity errors : sum local = 7.69694e-13, global = 1.12771e-13, cumulative = -7.06661e-13
DILUPBiCG:  Solving for epsilon, Initial residual = 0.00043027, Final residual = 7.76391e-07, No Iterations 1
DILUPBiCG:  Solving for k, Initial residual = 0.000122443, Final residual = 7.17418e-07, No Iterations 1

Number of parcels in system.... | 52
Injected liquid mass........... | 0.0174249 mg
Liquid Mass in system.......... | 0.0245224 mg
SMD, Dmax...................... | 23.0172 mu, 71.8125 mu
Added gas mass................. | 1.08294 mg
Evaporation Continuity Error... | 1.09004 mg
ExecutionTime = 17.09 s  ClockTime = 17 s
rho max/min : 0.939617 0.9222

Courant Number mean: 0.00235847 max: 0.289118
deltaT = 9.90099e-06
 MassFlows:   inlet = -0.000452778  outlet = 0.000420545
Calculating averages

Time = 4.9505e-05

Evolving Spray
diagonal:  Solving for rho, Initial residual = 0, Final residual = 0, No Iterations 0
DILUPBiCG:  Solving for Ux, Initial residual = 0.00808132, Final residual = 7.56317e-08, No Iterations 5
DILUPBiCG:  Solving for Uy, Initial residual = 0.00225605, Final residual = 9.13403e-08, No Iterations 2
DILUPBiCG:  Solving for Uz, Initial residual = 0.000271679, Final residual = 7.53968e-07, No Iterations 1
DILUPBiCG:  Solving for iC3H8O, Initial residual = 0, Final residual = 0, No Iterations 0
DILUPBiCG:  Solving for O2, Initial residual = 0.000158368, Final residual = 4.97929e-08, No Iterations 3
DILUPBiCG:  Solving for CO2, Initial residual = 0, Final residual = 0, No Iterations 0
DILUPBiCG:  Solving for H2O, Initial residual = 0.000647865, Final residual = 3.68071e-07, No Iterations 2
DILUPBiCG:  Solving for h, Initial residual = 0.000338329, Final residual = 7.52871e-07, No Iterations 2
DICPCG:  Solving for p, Initial residual = 0.0212623, Final residual = 8.43927e-10, No Iterations 35
DICPCG:  Solving for p, Initial residual = 6.29383e-10, Final residual = 6.29383e-10, No Iterations 0
diagonal:  Solving for rho, Initial residual = 0, Final residual = 0, No Iterations 0
time step continuity errors : sum local = 6.63998e-13, global = -1.97678e-14, cumulative = -7.26429e-13
DICPCG:  Solving for p, Initial residual = 0.000170977, Final residual = 8.34766e-10, No Iterations 26
DICPCG:  Solving for p, Initial residual = 8.37117e-10, Final residual = 8.37117e-10, No Iterations 0
diagonal:  Solving for rho, Initial residual = 0, Final residual = 0, No Iterations 0
time step continuity errors : sum local = 8.82924e-13, global = -2.09035e-14, cumulative = -7.47333e-13
DICPCG:  Solving for p, Initial residual = 5.13449e-05, Final residual = 6.27079e-10, No Iterations 24
DICPCG:  Solving for p, Initial residual = 6.29666e-10, Final residual = 6.29666e-10, No Iterations 0
diagonal:  Solving for rho, Initial residual = 0, Final residual = 0, No Iterations 0
time step continuity errors : sum local = 6.64094e-13, global = 3.87266e-15, cumulative = -7.4346e-13
DICPCG:  Solving for p, Initial residual = 1.48062e-05, Final residual = 7.80293e-10, No Iterations 21
DICPCG:  Solving for p, Initial residual = 7.8268e-10, Final residual = 7.8268e-10, No Iterations 0
diagonal:  Solving for rho, Initial residual = 0, Final residual = 0, No Iterations 0
time step continuity errors : sum local = 8.25437e-13, global = 8.74182e-15, cumulative = -7.34718e-13
DICPCG:  Solving for p, Initial residual = 7.15145e-06, Final residual = 6.79862e-10, No Iterations 19
DICPCG:  Solving for p, Initial residual = 6.82343e-10, Final residual = 6.82343e-10, No Iterations 0
diagonal:  Solving for rho, Initial residual = 0, Final residual = 0, No Iterations 0
time step continuity errors : sum local = 7.19679e-13, global = 5.1054e-14, cumulative = -6.83664e-13
DICPCG:  Solving for p, Initial residual = 4.0658e-06, Final residual = 8.56371e-10, No Iterations 17
DICPCG:  Solving for p, Initial residual = 8.58686e-10, Final residual = 8.58686e-10, No Iterations 0
diagonal:  Solving for rho, Initial residual = 0, Final residual = 0, No Iterations 0
time step continuity errors : sum local = 9.05707e-13, global = -2.79067e-14, cumulative = -7.11571e-13
DICPCG:  Solving for p, Initial residual = 2.61987e-06, Final residual = 9.54878e-10, No Iterations 15
DICPCG:  Solving for p, Initial residual = 9.57139e-10, Final residual = 9.57139e-10, No Iterations 0
diagonal:  Solving for rho, Initial residual = 0, Final residual = 0, No Iterations 0
time step continuity errors : sum local = 1.0095e-12, global = 2.26132e-15, cumulative = -7.0931e-13
DICPCG:  Solving for p, Initial residual = 1.82508e-06, Final residual = 9.61957e-10, No Iterations 14
DICPCG:  Solving for p, Initial residual = 9.641e-10, Final residual = 9.641e-10, No Iterations 0
diagonal:  Solving for rho, Initial residual = 0, Final residual = 0, No Iterations 0
time step continuity errors : sum local = 1.0169e-12, global = -7.56716e-14, cumulative = -7.84981e-13
DICPCG:  Solving for p, Initial residual = 1.34202e-06, Final residual = 7.89023e-10, No Iterations 13
DICPCG:  Solving for p, Initial residual = 7.91077e-10, Final residual = 7.91077e-10, No Iterations 0
diagonal:  Solving for rho, Initial residual = 0, Final residual = 0, No Iterations 0
time step continuity errors : sum local = 8.34502e-13, global = 3.01362e-14, cumulative = -7.54845e-13
DICPCG:  Solving for p, Initial residual = 1.02568e-06, Final residual = 9.3812e-10, No Iterations 10
DICPCG:  Solving for p, Initial residual = 9.39983e-10, Final residual = 9.39983e-10, No Iterations 0
diagonal:  Solving for rho, Initial residual = 0, Final residual = 0, No Iterations 0
time step continuity errors : sum local = 9.91543e-13, global = 5.74823e-14, cumulative = -6.97363e-13
DICPCG:  Solving for p, Initial residual = 8.04953e-07, Final residual = 6.06222e-10, No Iterations 9
DICPCG:  Solving for p, Initial residual = 6.08098e-10, Final residual = 6.08098e-10, No Iterations 0
diagonal:  Solving for rho, Initial residual = 0, Final residual = 0, No Iterations 0
time step continuity errors : sum local = 6.41616e-13, global = 1.42222e-13, cumulative = -5.5514e-13
DICPCG:  Solving for p, Initial residual = 6.44138e-07, Final residual = 7.49901e-10, No Iterations 8
DICPCG:  Solving for p, Initial residual = 7.51705e-10, Final residual = 7.51705e-10, No Iterations 0
diagonal:  Solving for rho, Initial residual = 0, Final residual = 0, No Iterations 0
time step continuity errors : sum local = 7.93009e-13, global = 1.63453e-13, cumulative = -3.91687e-13
DICPCG:  Solving for p, Initial residual = 5.22188e-07, Final residual = 4.65263e-10, No Iterations 8
DICPCG:  Solving for p, Initial residual = 4.67136e-10, Final residual = 4.67136e-10, No Iterations 0
diagonal:  Solving for rho, Initial residual = 0, Final residual = 0, No Iterations 0
time step continuity errors : sum local = 4.93035e-13, global = 7.37971e-14, cumulative = -3.1789e-13
DICPCG:  Solving for p, Initial residual = 4.27299e-07, Final residual = 7.81057e-10, No Iterations 7
DICPCG:  Solving for p, Initial residual = 7.8285e-10, Final residual = 7.8285e-10, No Iterations 0
diagonal:  Solving for rho, Initial residual = 0, Final residual = 0, No Iterations 0
time step continuity errors : sum local = 8.259e-13, global = -9.01014e-14, cumulative = -4.07992e-13
DICPCG:  Solving for p, Initial residual = 3.51891e-07, Final residual = 5.17047e-10, No Iterations 7
DICPCG:  Solving for p, Initial residual = 5.18842e-10, Final residual = 5.18842e-10, No Iterations 0
diagonal:  Solving for rho, Initial residual = 0, Final residual = 0, No Iterations 0
time step continuity errors : sum local = 5.47559e-13, global = -9.37172e-14, cumulative = -5.01709e-13
DICPCG:  Solving for p, Initial residual = 2.91246e-07, Final residual = 8.81681e-10, No Iterations 5
DICPCG:  Solving for p, Initial residual = 8.83357e-10, Final residual = 8.83357e-10, No Iterations 0
diagonal:  Solving for rho, Initial residual = 0, Final residual = 0, No Iterations 0
time step continuity errors : sum local = 9.31921e-13, global = 1.73232e-13, cumulative = -3.28477e-13
DICPCG:  Solving for p, Initial residual = 2.42257e-07, Final residual = 8.01297e-10, No Iterations 4
DICPCG:  Solving for p, Initial residual = 8.02984e-10, Final residual = 8.02984e-10, No Iterations 0
diagonal:  Solving for rho, Initial residual = 0, Final residual = 0, No Iterations 0
time step continuity errors : sum local = 8.47201e-13, global = 1.32899e-13, cumulative = -1.95578e-13
DICPCG:  Solving for p, Initial residual = 2.01798e-07, Final residual = 4.56735e-10, No Iterations 4
DICPCG:  Solving for p, Initial residual = 4.58425e-10, Final residual = 4.58425e-10, No Iterations 0
diagonal:  Solving for rho, Initial residual = 0, Final residual = 0, No Iterations 0
time step continuity errors : sum local = 4.83917e-13, global = 8.73018e-15, cumulative = -1.86848e-13
DICPCG:  Solving for p, Initial residual = 1.6826e-07, Final residual = 6.41401e-10, No Iterations 2
DICPCG:  Solving for p, Initial residual = 6.4303e-10, Final residual = 6.4303e-10, No Iterations 0
diagonal:  Solving for rho, Initial residual = 0, Final residual = 0, No Iterations 0
time step continuity errors : sum local = 6.78571e-13, global = -3.22243e-14, cumulative = -2.19073e-13
DICPCG:  Solving for p, Initial residual = 1.41003e-07, Final residual = 9.78118e-10, No Iterations 2
DICPCG:  Solving for p, Initial residual = 9.79732e-10, Final residual = 9.79732e-10, No Iterations 0
diagonal:  Solving for rho, Initial residual = 0, Final residual = 0, No Iterations 0
time step continuity errors : sum local = 1.03362e-12, global = -1.68863e-13, cumulative = -3.87936e-13
DILUPBiCG:  Solving for epsilon, Initial residual = 0.000423688, Final residual = 7.72497e-07, No Iterations 1
DILUPBiCG:  Solving for k, Initial residual = 0.000122026, Final residual = 7.2328e-07, No Iterations 1

Number of parcels in system.... | 65
Injected liquid mass........... | 0.0217811 mg
Liquid Mass in system.......... | 0.0308085 mg
SMD, Dmax...................... | 22.7036 mu, 71.8127 mu
Added gas mass................. | 1.33901 mg
Evaporation Continuity Error... | 1.34804 mg
ExecutionTime = 21.15 s  ClockTime = 21 s
rho max/min : 0.939192 0.919714

Courant Number mean: 0.00235689 max: 0.285887
deltaT = 9.90099e-06
 MassFlows:   inlet = -0.000452778  outlet = 0.000420267
Calculating averages

Time = 5.94059e-05

Evolving Spray
diagonal:  Solving for rho, Initial residual = 0, Final residual = 0, No Iterations 0
DILUPBiCG:  Solving for Ux, Initial residual = 0.00852913, Final residual = 7.77211e-07, No Iterations 4
DILUPBiCG:  Solving for Uy, Initial residual = 0.0027115, Final residual = 5.69341e-07, No Iterations 2
DILUPBiCG:  Solving for Uz, Initial residual = 0.000327655, Final residual = 8.47974e-07, No Iterations 1
DILUPBiCG:  Solving for iC3H8O, Initial residual = 0, Final residual = 0, No Iterations 0
DILUPBiCG:  Solving for O2, Initial residual = 0.000144572, Final residual = 7.64827e-07, No Iterations 2
DILUPBiCG:  Solving for CO2, Initial residual = 0, Final residual = 0, No Iterations 0
DILUPBiCG:  Solving for H2O, Initial residual = 0.000588335, Final residual = 2.88583e-07, No Iterations 2
DILUPBiCG:  Solving for h, Initial residual = 0.000350062, Final residual = 3.88113e-07, No Iterations 2
DICPCG:  Solving for p, Initial residual = 0.015478, Final residual = 7.03304e-10, No Iterations 35
DICPCG:  Solving for p, Initial residual = 5.61195e-10, Final residual = 5.61195e-10, No Iterations 0
diagonal:  Solving for rho, Initial residual = 0, Final residual = 0, No Iterations 0
time step continuity errors : sum local = 7.46934e-13, global = -4.00888e-14, cumulative = -4.28025e-13
DICPCG:  Solving for p, Initial residual = 0.000125401, Final residual = 7.06001e-10, No Iterations 26
DICPCG:  Solving for p, Initial residual = 7.07962e-10, Final residual = 7.07962e-10, No Iterations 0
diagonal:  Solving for rho, Initial residual = 0, Final residual = 0, No Iterations 0
time step continuity errors : sum local = 9.41879e-13, global = -3.09651e-14, cumulative = -4.5899e-13
DICPCG:  Solving for p, Initial residual = 3.87271e-05, Final residual = 8.40085e-10, No Iterations 22
DICPCG:  Solving for p, Initial residual = 8.42013e-10, Final residual = 8.42013e-10, No Iterations 0
diagonal:  Solving for rho, Initial residual = 0, Final residual = 0, No Iterations 0
time step continuity errors : sum local = 1.12002e-12, global = 5.16147e-14, cumulative = -4.07375e-13
DICPCG:  Solving for p, Initial residual = 1.21517e-05, Final residual = 5.62202e-10, No Iterations 21
DICPCG:  Solving for p, Initial residual = 5.64193e-10, Final residual = 5.64193e-10, No Iterations 0
diagonal:  Solving for rho, Initial residual = 0, Final residual = 0, No Iterations 0
time step continuity errors : sum local = 7.50544e-13, global = -3.81969e-15, cumulative = -4.11195e-13
DICPCG:  Solving for p, Initial residual = 6.40059e-06, Final residual = 7.02419e-10, No Iterations 19
DICPCG:  Solving for p, Initial residual = 7.04353e-10, Final residual = 7.04353e-10, No Iterations 0
diagonal:  Solving for rho, Initial residual = 0, Final residual = 0, No Iterations 0
time step continuity errors : sum local = 9.36991e-13, global = 1.16244e-14, cumulative = -3.9957e-13
DICPCG:  Solving for p, Initial residual = 3.95957e-06, Final residual = 6.18296e-10, No Iterations 18
DICPCG:  Solving for p, Initial residual = 6.20168e-10, Final residual = 6.20168e-10, No Iterations 0
diagonal:  Solving for rho, Initial residual = 0, Final residual = 0, No Iterations 0
time step continuity errors : sum local = 8.25045e-13, global = -3.04306e-14, cumulative = -4.30001e-13
DICPCG:  Solving for p, Initial residual = 2.72162e-06, Final residual = 8.66646e-10, No Iterations 16
DICPCG:  Solving for p, Initial residual = 8.6846e-10, Final residual = 8.6846e-10, No Iterations 0
diagonal:  Solving for rho, Initial residual = 0, Final residual = 0, No Iterations 0
time step continuity errors : sum local = 1.15524e-12, global = 3.22701e-14, cumulative = -3.97731e-13
DICPCG:  Solving for p, Initial residual = 1.9956e-06, Final residual = 8.56947e-10, No Iterations 15
DICPCG:  Solving for p, Initial residual = 8.58674e-10, Final residual = 8.58674e-10, No Iterations 0
diagonal:  Solving for rho, Initial residual = 0, Final residual = 0, No Iterations 0
time step continuity errors : sum local = 1.14231e-12, global = -7.29288e-14, cumulative = -4.70659e-13
DICPCG:  Solving for p, Initial residual = 1.52532e-06, Final residual = 6.95917e-10, No Iterations 14
DICPCG:  Solving for p, Initial residual = 6.97584e-10, Final residual = 6.97584e-10, No Iterations 0
diagonal:  Solving for rho, Initial residual = 0, Final residual = 0, No Iterations 0
time step continuity errors : sum local = 9.28124e-13, global = -3.44975e-14, cumulative = -5.05157e-13
DICPCG:  Solving for p, Initial residual = 1.19857e-06, Final residual = 8.33661e-10, No Iterations 12
DICPCG:  Solving for p, Initial residual = 8.35238e-10, Final residual = 8.35238e-10, No Iterations 0
diagonal:  Solving for rho, Initial residual = 0, Final residual = 0, No Iterations 0
time step continuity errors : sum local = 1.11121e-12, global = 1.62862e-13, cumulative = -3.42295e-13
DICPCG:  Solving for p, Initial residual = 9.5882e-07, Final residual = 8.27035e-10, No Iterations 10
DICPCG:  Solving for p, Initial residual = 8.28541e-10, Final residual = 8.28541e-10, No Iterations 0
diagonal:  Solving for rho, Initial residual = 0, Final residual = 0, No Iterations 0
time step continuity errors : sum local = 1.10232e-12, global = -2.67104e-15, cumulative = -3.44966e-13
DICPCG:  Solving for p, Initial residual = 7.76392e-07, Final residual = 9.43069e-10, No Iterations 8
DICPCG:  Solving for p, Initial residual = 9.4456e-10, Final residual = 9.4456e-10, No Iterations 0
diagonal:  Solving for rho, Initial residual = 0, Final residual = 0, No Iterations 0
time step continuity errors : sum local = 1.25662e-12, global = 2.69008e-13, cumulative = -7.5958e-14
DICPCG:  Solving for p, Initial residual = 6.34248e-07, Final residual = 5.01557e-10, No Iterations 8
DICPCG:  Solving for p, Initial residual = 5.03083e-10, Final residual = 5.03083e-10, No Iterations 0
diagonal:  Solving for rho, Initial residual = 0, Final residual = 0, No Iterations 0
time step continuity errors : sum local = 6.69582e-13, global = 1.09714e-13, cumulative = 3.37561e-14
DICPCG:  Solving for p, Initial residual = 5.21128e-07, Final residual = 8.61592e-10, No Iterations 7
DICPCG:  Solving for p, Initial residual = 8.62954e-10, Final residual = 8.62954e-10, No Iterations 0
diagonal:  Solving for rho, Initial residual = 0, Final residual = 0, No Iterations 0
time step continuity errors : sum local = 1.14814e-12, global = -1.60367e-13, cumulative = -1.26611e-13
DICPCG:  Solving for p, Initial residual = 4.30012e-07, Final residual = 7.7722e-10, No Iterations 6
DICPCG:  Solving for p, Initial residual = 7.786e-10, Final residual = 7.786e-10, No Iterations 0
diagonal:  Solving for rho, Initial residual = 0, Final residual = 0, No Iterations 0
time step continuity errors : sum local = 1.03598e-12, global = 2.2719e-13, cumulative = 1.00578e-13
DICPCG:  Solving for p, Initial residual = 3.56564e-07, Final residual = 9.76649e-10, No Iterations 5
DICPCG:  Solving for p, Initial residual = 9.77999e-10, Final residual = 9.77999e-10, No Iterations 0
diagonal:  Solving for rho, Initial residual = 0, Final residual = 0, No Iterations 0
time step continuity errors : sum local = 1.30115e-12, global = 3.20374e-13, cumulative = 4.20952e-13
DICPCG:  Solving for p, Initial residual = 2.96462e-07, Final residual = 7.16995e-10, No Iterations 4
DICPCG:  Solving for p, Initial residual = 7.18373e-10, Final residual = 7.18373e-10, No Iterations 0
diagonal:  Solving for rho, Initial residual = 0, Final residual = 0, No Iterations 0
time step continuity errors : sum local = 9.55894e-13, global = -1.80151e-15, cumulative = 4.19151e-13
DICPCG:  Solving for p, Initial residual = 2.46591e-07, Final residual = 4.34454e-10, No Iterations 4
DICPCG:  Solving for p, Initial residual = 4.35844e-10, Final residual = 4.35844e-10, No Iterations 0
diagonal:  Solving for rho, Initial residual = 0, Final residual = 0, No Iterations 0
time step continuity errors : sum local = 5.8019e-13, global = -6.00301e-14, cumulative = 3.59121e-13
DICPCG:  Solving for p, Initial residual = 2.05645e-07, Final residual = 6.32758e-10, No Iterations 2
DICPCG:  Solving for p, Initial residual = 6.34081e-10, Final residual = 6.34081e-10, No Iterations 0
diagonal:  Solving for rho, Initial residual = 0, Final residual = 0, No Iterations 0
time step continuity errors : sum local = 8.43841e-13, global = -1.30131e-13, cumulative = 2.2899e-13
DICPCG:  Solving for p, Initial residual = 1.72322e-07, Final residual = 3.41349e-10, No Iterations 4
DICPCG:  Solving for p, Initial residual = 3.42759e-10, Final residual = 3.42759e-10, No Iterations 0
diagonal:  Solving for rho, Initial residual = 0, Final residual = 0, No Iterations 0
time step continuity errors : sum local = 4.56415e-13, global = -2.8951e-14, cumulative = 2.00039e-13
DILUPBiCG:  Solving for epsilon, Initial residual = 0.00041754, Final residual = 7.73911e-07, No Iterations 1
DILUPBiCG:  Solving for k, Initial residual = 0.00012179, Final residual = 7.31564e-07, No Iterations 1

Number of parcels in system.... | 78
Injected liquid mass........... | 0.0261373 mg
Liquid Mass in system.......... | 0.0370943 mg
SMD, Dmax...................... | 22.0419 mu, 71.8129 mu
Added gas mass................. | 1.56495 mg
Evaporation Continuity Error... | 1.5759 mg
ExecutionTime = 25.16 s  ClockTime = 25 s
rho max/min : 0.939461 0.917408

Courant Number mean: 0.00235516 max: 0.28145
deltaT = 9.90099e-06
 MassFlows:   inlet = -0.000452778  outlet = 0.00041984
Calculating averages

Time = 6.93069e-05

Evolving Spray
diagonal:  Solving for rho, Initial residual = 0, Final residual = 0, No Iterations 0
DILUPBiCG:  Solving for Ux, Initial residual = 0.0100437, Final residual = 9.49073e-07, No Iterations 3
DILUPBiCG:  Solving for Uy, Initial residual = 0.00384087, Final residual = 3.05503e-07, No Iterations 2
DILUPBiCG:  Solving for Uz, Initial residual = 0.000370972, Final residual = 9.26105e-07, No Iterations 1
DILUPBiCG:  Solving for iC3H8O, Initial residual = 0, Final residual = 0, No Iterations 0
DILUPBiCG:  Solving for O2, Initial residual = 0.000134473, Final residual = 4.16966e-07, No Iterations 2
DILUPBiCG:  Solving for CO2, Initial residual = 0, Final residual = 0, No Iterations 0
DILUPBiCG:  Solving for H2O, Initial residual = 0.000521901, Final residual = 2.45012e-07, No Iterations 2
DILUPBiCG:  Solving for h, Initial residual = 0.000361233, Final residual = 3.72649e-07, No Iterations 2
DICPCG:  Solving for p, Initial residual = 0.0119833, Final residual = 5.40521e-10, No Iterations 35
DICPCG:  Solving for p, Initial residual = 4.54815e-10, Final residual = 4.54815e-10, No Iterations 0
diagonal:  Solving for rho, Initial residual = 0, Final residual = 0, No Iterations 0
time step continuity errors : sum local = 7.22939e-13, global = -2.08766e-14, cumulative = 1.79162e-13
DICPCG:  Solving for p, Initial residual = 9.85028e-05, Final residual = 6.27719e-10, No Iterations 26
DICPCG:  Solving for p, Initial residual = 6.29383e-10, Final residual = 6.29383e-10, No Iterations 0
diagonal:  Solving for rho, Initial residual = 0, Final residual = 0, No Iterations 0
time step continuity errors : sum local = 9.99934e-13, global = -3.16688e-14, cumulative = 1.47493e-13
DICPCG:  Solving for p, Initial residual = 3.16278e-05, Final residual = 5.94776e-10, No Iterations 22
DICPCG:  Solving for p, Initial residual = 5.96439e-10, Final residual = 5.96439e-10, No Iterations 0
diagonal:  Solving for rho, Initial residual = 0, Final residual = 0, No Iterations 0
time step continuity errors : sum local = 9.47417e-13, global = -4.16247e-14, cumulative = 1.05869e-13
DICPCG:  Solving for p, Initial residual = 1.10632e-05, Final residual = 8.47938e-10, No Iterations 20
DICPCG:  Solving for p, Initial residual = 8.4942e-10, Final residual = 8.4942e-10, No Iterations 0
diagonal:  Solving for rho, Initial residual = 0, Final residual = 0, No Iterations 0
time step continuity errors : sum local = 1.34923e-12, global = -1.88082e-14, cumulative = 8.70603e-14
DICPCG:  Solving for p, Initial residual = 6.11276e-06, Final residual = 5.97617e-10, No Iterations 19
DICPCG:  Solving for p, Initial residual = 5.99249e-10, Final residual = 5.99249e-10, No Iterations 0
diagonal:  Solving for rho, Initial residual = 0, Final residual = 0, No Iterations 0
time step continuity errors : sum local = 9.51907e-13, global = -2.10969e-14, cumulative = 6.59634e-14
DICPCG:  Solving for p, Initial residual = 3.831e-06, Final residual = 9.36434e-10, No Iterations 17
DICPCG:  Solving for p, Initial residual = 9.37959e-10, Final residual = 9.37959e-10, No Iterations 0
diagonal:  Solving for rho, Initial residual = 0, Final residual = 0, No Iterations 0
time step continuity errors : sum local = 1.48986e-12, global = 4.63113e-14, cumulative = 1.12275e-13
DICPCG:  Solving for p, Initial residual = 2.60827e-06, Final residual = 7.30031e-10, No Iterations 16
DICPCG:  Solving for p, Initial residual = 7.31548e-10, Final residual = 7.31548e-10, No Iterations 0
diagonal:  Solving for rho, Initial residual = 0, Final residual = 0, No Iterations 0
time step continuity errors : sum local = 1.16208e-12, global = 3.84863e-14, cumulative = 1.50761e-13
DICPCG:  Solving for p, Initial residual = 1.8769e-06, Final residual = 7.61183e-10, No Iterations 15
DICPCG:  Solving for p, Initial residual = 7.62621e-10, Final residual = 7.62621e-10, No Iterations 0
diagonal:  Solving for rho, Initial residual = 0, Final residual = 0, No Iterations 0
time step continuity errors : sum local = 1.21145e-12, global = -2.84547e-14, cumulative = 1.22306e-13
DICPCG:  Solving for p, Initial residual = 1.40576e-06, Final residual = 9.84735e-10, No Iterations 13
DICPCG:  Solving for p, Initial residual = 9.861e-10, Final residual = 9.861e-10, No Iterations 0
diagonal:  Solving for rho, Initial residual = 0, Final residual = 0, No Iterations 0
time step continuity errors : sum local = 1.56639e-12, global = 2.69179e-13, cumulative = 3.91486e-13
DICPCG:  Solving for p, Initial residual = 1.08399e-06, Final residual = 7.0674e-10, No Iterations 12
DICPCG:  Solving for p, Initial residual = 7.08017e-10, Final residual = 7.08017e-10, No Iterations 0
diagonal:  Solving for rho, Initial residual = 0, Final residual = 0, No Iterations 0
time step continuity errors : sum local = 1.12484e-12, global = 1.74945e-13, cumulative = 5.6643e-13
DICPCG:  Solving for p, Initial residual = 8.53197e-07, Final residual = 7.48523e-10, No Iterations 10
DICPCG:  Solving for p, Initial residual = 7.49787e-10, Final residual = 7.49787e-10, No Iterations 0
diagonal:  Solving for rho, Initial residual = 0, Final residual = 0, No Iterations 0
time step continuity errors : sum local = 1.19114e-12, global = -3.27804e-14, cumulative = 5.3365e-13
DICPCG:  Solving for p, Initial residual = 6.81524e-07, Final residual = 7.83878e-10, No Iterations 8
DICPCG:  Solving for p, Initial residual = 7.85168e-10, Final residual = 7.85168e-10, No Iterations 0
diagonal:  Solving for rho, Initial residual = 0, Final residual = 0, No Iterations 0
time step continuity errors : sum local = 1.2474e-12, global = 2.06673e-13, cumulative = 7.40323e-13
DICPCG:  Solving for p, Initial residual = 5.50419e-07, Final residual = 4.60311e-10, No Iterations 8
DICPCG:  Solving for p, Initial residual = 4.61616e-10, Final residual = 4.61616e-10, No Iterations 0
diagonal:  Solving for rho, Initial residual = 0, Final residual = 0, No Iterations 0
time step continuity errors : sum local = 7.33601e-13, global = 7.38798e-14, cumulative = 8.14202e-13
DICPCG:  Solving for p, Initial residual = 4.4798e-07, Final residual = 7.309e-10, No Iterations 7
DICPCG:  Solving for p, Initial residual = 7.32075e-10, Final residual = 7.32075e-10, No Iterations 0
diagonal:  Solving for rho, Initial residual = 0, Final residual = 0, No Iterations 0
time step continuity errors : sum local = 1.1631e-12, global = -1.24651e-13, cumulative = 6.89552e-13
DICPCG:  Solving for p, Initial residual = 3.66722e-07, Final residual = 7.11478e-10, No Iterations 6
DICPCG:  Solving for p, Initial residual = 7.12638e-10, Final residual = 7.12638e-10, No Iterations 0
diagonal:  Solving for rho, Initial residual = 0, Final residual = 0, No Iterations 0
time step continuity errors : sum local = 1.13222e-12, global = 2.89121e-13, cumulative = 9.78673e-13
DICPCG:  Solving for p, Initial residual = 3.02011e-07, Final residual = 9.6666e-10, No Iterations 4
DICPCG:  Solving for p, Initial residual = 9.67797e-10, Final residual = 9.67797e-10, No Iterations 0
diagonal:  Solving for rho, Initial residual = 0, Final residual = 0, No Iterations 0
time step continuity errors : sum local = 1.53746e-12, global = 1.3033e-14, cumulative = 9.91706e-13
DICPCG:  Solving for p, Initial residual = 2.4921e-07, Final residual = 5.29425e-10, No Iterations 4
DICPCG:  Solving for p, Initial residual = 5.30597e-10, Final residual = 5.30597e-10, No Iterations 0
diagonal:  Solving for rho, Initial residual = 0, Final residual = 0, No Iterations 0
time step continuity errors : sum local = 8.43144e-13, global = -6.19888e-14, cumulative = 9.29717e-13
DICPCG:  Solving for p, Initial residual = 2.06434e-07, Final residual = 9.11218e-10, No Iterations 2
DICPCG:  Solving for p, Initial residual = 9.12314e-10, Final residual = 9.12314e-10, No Iterations 0
diagonal:  Solving for rho, Initial residual = 0, Final residual = 0, No Iterations 0
time step continuity errors : sum local = 1.44939e-12, global = -3.48226e-13, cumulative = 5.81492e-13
DICPCG:  Solving for p, Initial residual = 1.71994e-07, Final residual = 4.40642e-10, No Iterations 4
DICPCG:  Solving for p, Initial residual = 4.41817e-10, Final residual = 4.41817e-10, No Iterations 0
diagonal:  Solving for rho, Initial residual = 0, Final residual = 0, No Iterations 0
time step continuity errors : sum local = 7.02205e-13, global = -2.8357e-14, cumulative = 5.53135e-13
DICPCG:  Solving for p, Initial residual = 1.42953e-07, Final residual = 3.06506e-10, No Iterations 2
DICPCG:  Solving for p, Initial residual = 3.07632e-10, Final residual = 3.07632e-10, No Iterations 0
diagonal:  Solving for rho, Initial residual = 0, Final residual = 0, No Iterations 0
time step continuity errors : sum local = 4.8915e-13, global = -6.02054e-14, cumulative = 4.92929e-13
DILUPBiCG:  Solving for epsilon, Initial residual = 0.000411539, Final residual = 7.79215e-07, No Iterations 1
DILUPBiCG:  Solving for k, Initial residual = 0.000121611, Final residual = 7.42273e-07, No Iterations 1

Number of parcels in system.... | 91
Injected liquid mass........... | 0.0304935 mg
Liquid Mass in system.......... | 0.0433798 mg
SMD, Dmax...................... | 22.4087 mu, 71.8131 mu
Added gas mass................. | 1.76582 mg
Evaporation Continuity Error... | 1.7787 mg
ExecutionTime = 29.18 s  ClockTime = 29 s
rho max/min : 0.941095 0.915426

Courant Number mean: 0.00235051 max: 0.276844
deltaT = 9.90099e-06
 MassFlows:   inlet = -0.000452778  outlet = 0.00041943
Calculating averages

Time = 7.92079e-05

Evolving Spray
diagonal:  Solving for rho, Initial residual = 0, Final residual = 0, No Iterations 0
DILUPBiCG:  Solving for Ux, Initial residual = 0.0119231, Final residual = 7.59546e-07, No Iterations 3
DILUPBiCG:  Solving for Uy, Initial residual = 0.00181572, Final residual = 2.84405e-07, No Iterations 2
DILUPBiCG:  Solving for Uz, Initial residual = 0.000401058, Final residual = 9.52913e-07, No Iterations 1
DILUPBiCG:  Solving for iC3H8O, Initial residual = 0, Final residual = 0, No Iterations 0
DILUPBiCG:  Solving for O2, Initial residual = 0.000127112, Final residual = 1.41513e-07, No Iterations 2
DILUPBiCG:  Solving for CO2, Initial residual = 0, Final residual = 0, No Iterations 0
DILUPBiCG:  Solving for H2O, Initial residual = 0.000489608, Final residual = 2.6797e-07, No Iterations 2
DILUPBiCG:  Solving for h, Initial residual = 0.000371337, Final residual = 1.61127e-07, No Iterations 2
DICPCG:  Solving for p, Initial residual = 0.0102193, Final residual = 8.1989e-10, No Iterations 34
DICPCG:  Solving for p, Initial residual = 7.21149e-10, Final residual = 7.21149e-10, No Iterations 0
diagonal:  Solving for rho, Initial residual = 0, Final residual = 0, No Iterations 0
time step continuity errors : sum local = 1.30589e-12, global = -8.81032e-15, cumulative = 4.84119e-13
DICPCG:  Solving for p, Initial residual = 9.17514e-05, Final residual = 8.10711e-10, No Iterations 25
DICPCG:  Solving for p, Initial residual = 8.12308e-10, Final residual = 8.12308e-10, No Iterations 0
diagonal:  Solving for rho, Initial residual = 0, Final residual = 0, No Iterations 0
time step continuity errors : sum local = 1.47027e-12, global = 3.77356e-14, cumulative = 5.21855e-13
DICPCG:  Solving for p, Initial residual = 2.93756e-05, Final residual = 8.43158e-10, No Iterations 21
DICPCG:  Solving for p, Initial residual = 8.44538e-10, Final residual = 8.44538e-10, No Iterations 0
diagonal:  Solving for rho, Initial residual = 0, Final residual = 0, No Iterations 0
time step continuity errors : sum local = 1.52832e-12, global = -9.51173e-14, cumulative = 4.26737e-13
DICPCG:  Solving for p, Initial residual = 1.06656e-05, Final residual = 8.77355e-10, No Iterations 19
DICPCG:  Solving for p, Initial residual = 8.78652e-10, Final residual = 8.78652e-10, No Iterations 0
diagonal:  Solving for rho, Initial residual = 0, Final residual = 0, No Iterations 0
time step continuity errors : sum local = 1.59e-12, global = 6.40661e-14, cumulative = 4.90803e-13
DICPCG:  Solving for p, Initial residual = 5.83392e-06, Final residual = 6.59298e-10, No Iterations 18
DICPCG:  Solving for p, Initial residual = 6.60587e-10, Final residual = 6.60587e-10, No Iterations 0
diagonal:  Solving for rho, Initial residual = 0, Final residual = 0, No Iterations 0
time step continuity errors : sum local = 1.19542e-12, global = 8.74946e-14, cumulative = 5.78298e-13
DICPCG:  Solving for p, Initial residual = 3.53265e-06, Final residual = 8.79643e-10, No Iterations 16
DICPCG:  Solving for p, Initial residual = 8.80908e-10, Final residual = 8.80908e-10, No Iterations 0
diagonal:  Solving for rho, Initial residual = 0, Final residual = 0, No Iterations 0
time step continuity errors : sum local = 1.59404e-12, global = 2.21514e-13, cumulative = 7.99812e-13
DICPCG:  Solving for p, Initial residual = 2.30498e-06, Final residual = 8.83064e-10, No Iterations 15
DICPCG:  Solving for p, Initial residual = 8.84294e-10, Final residual = 8.84294e-10, No Iterations 0
diagonal:  Solving for rho, Initial residual = 0, Final residual = 0, No Iterations 0
time step continuity errors : sum local = 1.60022e-12, global = 1.72212e-13, cumulative = 9.72023e-13
DICPCG:  Solving for p, Initial residual = 1.58752e-06, Final residual = 5.98943e-10, No Iterations 14
DICPCG:  Solving for p, Initial residual = 6.00162e-10, Final residual = 6.00162e-10, No Iterations 0
diagonal:  Solving for rho, Initial residual = 0, Final residual = 0, No Iterations 0
time step continuity errors : sum local = 1.08622e-12, global = 2.35235e-13, cumulative = 1.20726e-12
DICPCG:  Solving for p, Initial residual = 1.14124e-06, Final residual = 8.1038e-10, No Iterations 12
DICPCG:  Solving for p, Initial residual = 8.11522e-10, Final residual = 8.11522e-10, No Iterations 0
diagonal:  Solving for rho, Initial residual = 0, Final residual = 0, No Iterations 0
time step continuity errors : sum local = 1.4686e-12, global = 1.97003e-13, cumulative = 1.40426e-12
DICPCG:  Solving for p, Initial residual = 8.46055e-07, Final residual = 9.26826e-10, No Iterations 10
DICPCG:  Solving for p, Initial residual = 9.27892e-10, Final residual = 9.27892e-10, No Iterations 0
diagonal:  Solving for rho, Initial residual = 0, Final residual = 0, No Iterations 0
time step continuity errors : sum local = 1.6792e-12, global = -1.50387e-13, cumulative = 1.25387e-12
DICPCG:  Solving for p, Initial residual = 6.43e-07, Final residual = 8.91663e-10, No Iterations 8
DICPCG:  Solving for p, Initial residual = 8.92752e-10, Final residual = 8.92752e-10, No Iterations 0
diagonal:  Solving for rho, Initial residual = 0, Final residual = 0, No Iterations 0
time step continuity errors : sum local = 1.6156e-12, global = 2.43663e-13, cumulative = 1.49754e-12
DICPCG:  Solving for p, Initial residual = 4.98022e-07, Final residual = 5.50474e-10, No Iterations 8
DICPCG:  Solving for p, Initial residual = 5.51558e-10, Final residual = 5.51558e-10, No Iterations 0
diagonal:  Solving for rho, Initial residual = 0, Final residual = 0, No Iterations 0
time step continuity errors : sum local = 9.98362e-13, global = 9.57526e-14, cumulative = 1.59329e-12
DICPCG:  Solving for p, Initial residual = 3.9166e-07, Final residual = 7.34771e-10, No Iterations 7
DICPCG:  Solving for p, Initial residual = 7.35776e-10, Final residual = 7.35776e-10, No Iterations 0
diagonal:  Solving for rho, Initial residual = 0, Final residual = 0, No Iterations 0
time step continuity errors : sum local = 1.33165e-12, global = -7.01287e-14, cumulative = 1.52316e-12
DICPCG:  Solving for p, Initial residual = 3.1158e-07, Final residual = 7.21681e-10, No Iterations 6
DICPCG:  Solving for p, Initial residual = 7.22676e-10, Final residual = 7.22676e-10, No Iterations 0
diagonal:  Solving for rho, Initial residual = 0, Final residual = 0, No Iterations 0
time step continuity errors : sum local = 1.30799e-12, global = 3.33715e-13, cumulative = 1.85688e-12
DICPCG:  Solving for p, Initial residual = 2.50404e-07, Final residual = 7.71812e-10, No Iterations 5
DICPCG:  Solving for p, Initial residual = 7.72829e-10, Final residual = 7.72829e-10, No Iterations 0
diagonal:  Solving for rho, Initial residual = 0, Final residual = 0, No Iterations 0
time step continuity errors : sum local = 1.39871e-12, global = 3.76612e-13, cumulative = 2.23349e-12
DICPCG:  Solving for p, Initial residual = 2.02893e-07, Final residual = 7.13236e-10, No Iterations 4
DICPCG:  Solving for p, Initial residual = 7.14229e-10, Final residual = 7.14229e-10, No Iterations 0
diagonal:  Solving for rho, Initial residual = 0, Final residual = 0, No Iterations 0
time step continuity errors : sum local = 1.29271e-12, global = -6.19237e-15, cumulative = 2.22729e-12
DICPCG:  Solving for p, Initial residual = 1.64768e-07, Final residual = 9.96428e-10, No Iterations 2
DICPCG:  Solving for p, Initial residual = 9.97343e-10, Final residual = 9.97343e-10, No Iterations 0
diagonal:  Solving for rho, Initial residual = 0, Final residual = 0, No Iterations 0
time step continuity errors : sum local = 1.80496e-12, global = -4.61982e-13, cumulative = 1.76531e-12
DICPCG:  Solving for p, Initial residual = 1.35495e-07, Final residual = 4.86477e-10, No Iterations 4
DICPCG:  Solving for p, Initial residual = 4.87505e-10, Final residual = 4.87505e-10, No Iterations 0
diagonal:  Solving for rho, Initial residual = 0, Final residual = 0, No Iterations 0
time step continuity errors : sum local = 8.82547e-13, global = 1.82199e-14, cumulative = 1.78353e-12
DICPCG:  Solving for p, Initial residual = 1.11087e-07, Final residual = 2.68608e-10, No Iterations 2
DICPCG:  Solving for p, Initial residual = 2.69579e-10, Final residual = 2.69579e-10, No Iterations 0
diagonal:  Solving for rho, Initial residual = 0, Final residual = 0, No Iterations 0
[...]
time step continuity errors : sum local = 6.19164e-13, global = 4.05999e-14, cumulative = -8.66494e-12
DICPCG:  Solving for p, Initial residual = 2.36772e-06, Final residual = 8.4977e-10, No Iterations 16
DICPCG:  Solving for p, Initial residual = 8.52566e-10, Final residual = 8.52566e-10, No Iterations 0
diagonal:  Solving for rho, Initial residual = 0, Final residual = 0, No Iterations 0
time step continuity errors : sum local = 6.1968e-13, global = -7.9545e-14, cumulative = -8.74448e-12
DICPCG:  Solving for p, Initial residual = 9.91635e-07, Final residual = 9.36117e-10, No Iterations 14
DICPCG:  Solving for p, Initial residual = 9.38935e-10, Final residual = 9.38935e-10, No Iterations 0
diagonal:  Solving for rho, Initial residual = 0, Final residual = 0, No Iterations 0
time step continuity errors : sum local = 6.82478e-13, global = 4.99066e-14, cumulative = -8.69458e-12
DICPCG:  Solving for p, Initial residual = 4.6072e-07, Final residual = 6.94334e-10, No Iterations 13
DICPCG:  Solving for p, Initial residual = 6.97525e-10, Final residual = 6.97525e-10, No Iterations 0
diagonal:  Solving for rho, Initial residual = 0, Final residual = 0, No Iterations 0
time step continuity errors : sum local = 5.07098e-13, global = -1.05293e-14, cumulative = -8.70511e-12
DICPCG:  Solving for p, Initial residual = 2.31307e-07, Final residual = 6.87785e-10, No Iterations 12
DICPCG:  Solving for p, Initial residual = 6.90794e-10, Final residual = 6.90794e-10, No Iterations 0
diagonal:  Solving for rho, Initial residual = 0, Final residual = 0, No Iterations 0
time step continuity errors : sum local = 5.02222e-13, global = -7.44502e-14, cumulative = -8.77956e-12
DICPCG:  Solving for p, Initial residual = 1.25169e-07, Final residual = 7.02503e-10, No Iterations 10
DICPCG:  Solving for p, Initial residual = 7.05281e-10, Final residual = 7.05281e-10, No Iterations 0
diagonal:  Solving for rho, Initial residual = 0, Final residual = 0, No Iterations 0
time step continuity errors : sum local = 5.1282e-13, global = 7.39403e-14, cumulative = -8.70562e-12
DICPCG:  Solving for p, Initial residual = 7.19408e-08, Final residual = 9.91355e-10, No Iterations 8
DICPCG:  Solving for p, Initial residual = 9.93893e-10, Final residual = 9.93893e-10, No Iterations 0
diagonal:  Solving for rho, Initial residual = 0, Final residual = 0, No Iterations 0
time step continuity errors : sum local = 7.22589e-13, global = 1.37805e-14, cumulative = -8.69184e-12
DICPCG:  Solving for p, Initial residual = 4.44092e-08, Final residual = 9.12817e-10, No Iterations 6
DICPCG:  Solving for p, Initial residual = 9.15219e-10, Final residual = 9.15219e-10, No Iterations 0
diagonal:  Solving for rho, Initial residual = 0, Final residual = 0, No Iterations 0
time step continuity errors : sum local = 6.65475e-13, global = 1.8564e-13, cumulative = -8.5062e-12
DICPCG:  Solving for p, Initial residual = 2.87976e-08, Final residual = 7.85628e-10, No Iterations 5
DICPCG:  Solving for p, Initial residual = 7.88098e-10, Final residual = 7.88098e-10, No Iterations 0
diagonal:  Solving for rho, Initial residual = 0, Final residual = 0, No Iterations 0
time step continuity errors : sum local = 5.73108e-13, global = 1.57581e-13, cumulative = -8.34862e-12
DICPCG:  Solving for p, Initial residual = 1.97576e-08, Final residual = 9.64409e-10, No Iterations 4
DICPCG:  Solving for p, Initial residual = 9.66692e-10, Final residual = 9.66692e-10, No Iterations 0
diagonal:  Solving for rho, Initial residual = 0, Final residual = 0, No Iterations 0
time step continuity errors : sum local = 7.02927e-13, global = 1.21048e-13, cumulative = -8.22757e-12
DICPCG:  Solving for p, Initial residual = 1.47389e-08, Final residual = 9.0055e-10, No Iterations 3
DICPCG:  Solving for p, Initial residual = 9.027e-10, Final residual = 9.027e-10, No Iterations 0
diagonal:  Solving for rho, Initial residual = 0, Final residual = 0, No Iterations 0
time step continuity errors : sum local = 6.56456e-13, global = 1.09749e-13, cumulative = -8.11782e-12
DICPCG:  Solving for p, Initial residual = 1.10036e-08, Final residual = 6.08589e-10, No Iterations 3
DICPCG:  Solving for p, Initial residual = 6.10766e-10, Final residual = 6.10766e-10, No Iterations 0
diagonal:  Solving for rho, Initial residual = 0, Final residual = 0, No Iterations 0
time step continuity errors : sum local = 4.44363e-13, global = 8.18173e-14, cumulative = -8.036e-12
DICPCG:  Solving for p, Initial residual = 8.23324e-09, Final residual = 7.71979e-10, No Iterations 1
DICPCG:  Solving for p, Initial residual = 7.73962e-10, Final residual = 7.73962e-10, No Iterations 0
diagonal:  Solving for rho, Initial residual = 0, Final residual = 0, No Iterations 0
time step continuity errors : sum local = 5.62977e-13, global = 9.12753e-14, cumulative = -7.94473e-12
DICPCG:  Solving for p, Initial residual = 6.96624e-09, Final residual = 9.17008e-10, No Iterations 1
DICPCG:  Solving for p, Initial residual = 9.19011e-10, Final residual = 9.19011e-10, No Iterations 0
diagonal:  Solving for rho, Initial residual = 0, Final residual = 0, No Iterations 0
time step continuity errors : sum local = 6.68408e-13, global = 7.93429e-14, cumulative = -7.86538e-12
DICPCG:  Solving for p, Initial residual = 5.69694e-09, Final residual = 8.7666e-10, No Iterations 1
DICPCG:  Solving for p, Initial residual = 8.78729e-10, Final residual = 8.78729e-10, No Iterations 0
diagonal:  Solving for rho, Initial residual = 0, Final residual = 0, No Iterations 0
time step continuity errors : sum local = 6.39129e-13, global = 6.87741e-14, cumulative = -7.79661e-12
DICPCG:  Solving for p, Initial residual = 4.68584e-09, Final residual = 7.6649e-10, No Iterations 1
DICPCG:  Solving for p, Initial residual = 7.68571e-10, Final residual = 7.68571e-10, No Iterations 0
diagonal:  Solving for rho, Initial residual = 0, Final residual = 0, No Iterations 0
time step continuity errors : sum local = 5.59084e-13, global = 6.24899e-14, cumulative = -7.73412e-12
DICPCG:  Solving for p, Initial residual = 3.8853e-09, Final residual = 6.51466e-10, No Iterations 1
DICPCG:  Solving for p, Initial residual = 6.53595e-10, Final residual = 6.53595e-10, No Iterations 0
diagonal:  Solving for rho, Initial residual = 0, Final residual = 0, No Iterations 0
time step continuity errors : sum local = 4.75556e-13, global = 5.90752e-14, cumulative = -7.67504e-12
DILUPBiCG:  Solving for epsilon, Initial residual = 0.000274556, Final residual = 6.99304e-07, No Iterations 1
DILUPBiCG:  Solving for k, Initial residual = 0.000103054, Final residual = 7.05413e-07, No Iterations 1

Number of parcels in system.... | 390
Injected liquid mass........... | 0.130687 mg
Liquid Mass in system.......... | 0.188182 mg
SMD, Dmax...................... | 25.3462 mu, 79.3463 mu
Added gas mass................. | 2.58596 mg
Evaporation Continuity Error... | 2.64346 mg
ExecutionTime = 121.27 s  ClockTime = 123 s
rho max/min : 0.945813 0.910685

Courant Number mean: 0.00256318 max: 0.282039
deltaT = 9.90099e-06
 MassFlows:   inlet = -0.000452778  outlet = 0.000417836
Calculating averages

Time = 0.000306931

Evolving Spray
diagonal:  Solving for rho, Initial residual = 0, Final residual = 0, No Iterations 0
DILUPBiCG:  Solving for Ux, Initial residual = 0.0184266, Final residual = 2.77836e-07, No Iterations 3
DILUPBiCG:  Solving for Uy, Initial residual = 0.0016507, Final residual = 3.65204e-08, No Iterations 3
DILUPBiCG:  Solving for Uz, Initial residual = 0.000663654, Final residual = 6.92079e-07, No Iterations 1
DILUPBiCG:  Solving for iC3H8O, Initial residual = 0, Final residual = 0, No Iterations 0
DILUPBiCG:  Solving for O2, Initial residual = 9.48968e-05, Final residual = 6.61783e-09, No Iterations 3
DILUPBiCG:  Solving for CO2, Initial residual = 0, Final residual = 0, No Iterations 0
DILUPBiCG:  Solving for H2O, Initial residual = 0.000202693, Final residual = 9.17792e-08, No Iterations 2
DILUPBiCG:  Solving for h, Initial residual = 0.000211558, Final residual = 1.40911e-07, No Iterations 2
DICPCG:  Solving for p, Initial residual = 0.032212, Final residual = 9.5083e-10, No Iterations 34
DICPCG:  Solving for p, Initial residual = 9.39948e-10, Final residual = 9.39948e-10, No Iterations 0
diagonal:  Solving for rho, Initial residual = 0, Final residual = 0, No Iterations 0
time step continuity errors : sum local = 7.01442e-13, global = -5.36881e-14, cumulative = -7.72873e-12
DICPCG:  Solving for p, Initial residual = 0.00015516, Final residual = 6.67639e-10, No Iterations 24
DICPCG:  Solving for p, Initial residual = 6.70986e-10, Final residual = 6.70986e-10, No Iterations 0
diagonal:  Solving for rho, Initial residual = 0, Final residual = 0, No Iterations 0
time step continuity errors : sum local = 5.00766e-13, global = 6.93077e-15, cumulative = -7.7218e-12
DICPCG:  Solving for p, Initial residual = 2.27528e-05, Final residual = 8.92556e-10, No Iterations 19
DICPCG:  Solving for p, Initial residual = 8.95216e-10, Final residual = 8.95216e-10, No Iterations 0
diagonal:  Solving for rho, Initial residual = 0, Final residual = 0, No Iterations 0
time step continuity errors : sum local = 6.67987e-13, global = 3.84009e-14, cumulative = -7.6834e-12
DICPCG:  Solving for p, Initial residual = 6.13112e-06, Final residual = 5.91009e-10, No Iterations 17
DICPCG:  Solving for p, Initial residual = 5.93823e-10, Final residual = 5.93823e-10, No Iterations 0
diagonal:  Solving for rho, Initial residual = 0, Final residual = 0, No Iterations 0
time step continuity errors : sum local = 4.43212e-13, global = 2.79158e-15, cumulative = -7.68061e-12
DICPCG:  Solving for p, Initial residual = 2.2474e-06, Final residual = 5.74605e-10, No Iterations 15
DICPCG:  Solving for p, Initial residual = 5.77495e-10, Final residual = 5.77495e-10, No Iterations 0
diagonal:  Solving for rho, Initial residual = 0, Final residual = 0, No Iterations 0
time step continuity errors : sum local = 4.31049e-13, global = -1.50046e-14, cumulative = -7.69561e-12
DICPCG:  Solving for p, Initial residual = 9.55019e-07, Final residual = 8.1439e-10, No Iterations 13
DICPCG:  Solving for p, Initial residual = 8.17125e-10, Final residual = 8.17125e-10, No Iterations 0
diagonal:  Solving for rho, Initial residual = 0, Final residual = 0, No Iterations 0
time step continuity errors : sum local = 6.0989e-13, global = 3.64857e-14, cumulative = -7.65913e-12
DICPCG:  Solving for p, Initial residual = 4.53942e-07, Final residual = 8.22445e-10, No Iterations 12
DICPCG:  Solving for p, Initial residual = 8.25163e-10, Final residual = 8.25163e-10, No Iterations 0
diagonal:  Solving for rho, Initial residual = 0, Final residual = 0, No Iterations 0
time step continuity errors : sum local = 6.15953e-13, global = -3.30558e-14, cumulative = -7.69218e-12
DICPCG:  Solving for p, Initial residual = 2.35462e-07, Final residual = 8.00406e-10, No Iterations 10
DICPCG:  Solving for p, Initial residual = 8.03014e-10, Final residual = 8.03014e-10, No Iterations 0
diagonal:  Solving for rho, Initial residual = 0, Final residual = 0, No Iterations 0
time step continuity errors : sum local = 5.99467e-13, global = 1.07065e-13, cumulative = -7.58512e-12
DICPCG:  Solving for p, Initial residual = 1.31345e-07, Final residual = 6.72403e-10, No Iterations 9
DICPCG:  Solving for p, Initial residual = 6.75058e-10, Final residual = 6.75058e-10, No Iterations 0
diagonal:  Solving for rho, Initial residual = 0, Final residual = 0, No Iterations 0
time step continuity errors : sum local = 5.04031e-13, global = 2.46475e-14, cumulative = -7.56047e-12
DICPCG:  Solving for p, Initial residual = 7.83863e-08, Final residual = 8.75679e-10, No Iterations 7
DICPCG:  Solving for p, Initial residual = 8.78186e-10, Final residual = 8.78186e-10, No Iterations 0
diagonal:  Solving for rho, Initial residual = 0, Final residual = 0, No Iterations 0
time step continuity errors : sum local = 6.55611e-13, global = 4.93521e-14, cumulative = -7.51112e-12
DICPCG:  Solving for p, Initial residual = 5.02682e-08, Final residual = 9.7316e-10, No Iterations 5
DICPCG:  Solving for p, Initial residual = 9.75507e-10, Final residual = 9.75507e-10, No Iterations 0
diagonal:  Solving for rho, Initial residual = 0, Final residual = 0, No Iterations 0
time step continuity errors : sum local = 7.2827e-13, global = 8.0195e-14, cumulative = -7.43092e-12
DICPCG:  Solving for p, Initial residual = 3.40267e-08, Final residual = 7.48804e-10, No Iterations 5
DICPCG:  Solving for p, Initial residual = 7.51153e-10, Final residual = 7.51153e-10, No Iterations 0
diagonal:  Solving for rho, Initial residual = 0, Final residual = 0, No Iterations 0
time step continuity errors : sum local = 5.60915e-13, global = 6.81044e-14, cumulative = -7.36282e-12
DICPCG:  Solving for p, Initial residual = 2.43102e-08, Final residual = 8.57061e-10, No Iterations 4
DICPCG:  Solving for p, Initial residual = 8.59181e-10, Final residual = 8.59181e-10, No Iterations 0
diagonal:  Solving for rho, Initial residual = 0, Final residual = 0, No Iterations 0
time step continuity errors : sum local = 6.41537e-13, global = 1.29783e-13, cumulative = -7.23304e-12
DICPCG:  Solving for p, Initial residual = 1.83636e-08, Final residual = 7.25631e-10, No Iterations 3
DICPCG:  Solving for p, Initial residual = 7.2776e-10, Final residual = 7.2776e-10, No Iterations 0
diagonal:  Solving for rho, Initial residual = 0, Final residual = 0, No Iterations 0
time step continuity errors : sum local = 5.4353e-13, global = 4.20658e-14, cumulative = -7.19097e-12
DICPCG:  Solving for p, Initial residual = 1.40832e-08, Final residual = 9.26514e-10, No Iterations 2
DICPCG:  Solving for p, Initial residual = 9.28574e-10, Final residual = 9.28574e-10, No Iterations 0
diagonal:  Solving for rho, Initial residual = 0, Final residual = 0, No Iterations 0
time step continuity errors : sum local = 6.93343e-13, global = 7.69886e-15, cumulative = -7.18327e-12
DICPCG:  Solving for p, Initial residual = 1.14461e-08, Final residual = 7.21331e-10, No Iterations 2
DICPCG:  Solving for p, Initial residual = 7.23511e-10, Final residual = 7.23511e-10, No Iterations 0
diagonal:  Solving for rho, Initial residual = 0, Final residual = 0, No Iterations 0
time step continuity errors : sum local = 5.40417e-13, global = 7.25374e-14, cumulative = -7.11073e-12
DICPCG:  Solving for p, Initial residual = 9.31955e-09, Final residual = 8.77749e-10, No Iterations 1
DICPCG:  Solving for p, Initial residual = 8.797e-10, Final residual = 8.797e-10, No Iterations 0
diagonal:  Solving for rho, Initial residual = 0, Final residual = 0, No Iterations 0
time step continuity errors : sum local = 6.57031e-13, global = 1.2791e-13, cumulative = -6.98282e-12
DICPCG:  Solving for p, Initial residual = 7.88586e-09, Final residual = 8.33991e-10, No Iterations 1
DICPCG:  Solving for p, Initial residual = 8.35973e-10, Final residual = 8.35973e-10, No Iterations 0
diagonal:  Solving for rho, Initial residual = 0, Final residual = 0, No Iterations 0
time step continuity errors : sum local = 6.24388e-13, global = 1.0686e-13, cumulative = -6.87596e-12
DICPCG:  Solving for p, Initial residual = 6.58849e-09, Final residual = 7.35542e-10, No Iterations 1
DICPCG:  Solving for p, Initial residual = 7.37633e-10, Final residual = 7.37633e-10, No Iterations 0
diagonal:  Solving for rho, Initial residual = 0, Final residual = 0, No Iterations 0
time step continuity errors : sum local = 5.5097e-13, global = 9.96849e-14, cumulative = -6.77628e-12
DICPCG:  Solving for p, Initial residual = 5.53987e-09, Final residual = 6.41919e-10, No Iterations 1
DICPCG:  Solving for p, Initial residual = 6.44035e-10, Final residual = 6.44035e-10, No Iterations 0
diagonal:  Solving for rho, Initial residual = 0, Final residual = 0, No Iterations 0
time step continuity errors : sum local = 4.81147e-13, global = 8.18281e-14, cumulative = -6.69445e-12
DILUPBiCG:  Solving for epsilon, Initial residual = 0.000269943, Final residual = 6.75288e-07, No Iterations 1
DILUPBiCG:  Solving for k, Initial residual = 0.000101929, Final residual = 7.00472e-07, No Iterations 1

Number of parcels in system.... | 403
Injected liquid mass........... | 0.135043 mg
Liquid Mass in system.......... | 0.194459 mg
SMD, Dmax...................... | 25.1944 mu, 79.3464 mu
Added gas mass................. | 2.62011 mg
Evaporation Continuity Error... | 2.67952 mg
ExecutionTime = 125.26 s  ClockTime = 127 s
rho max/min : 0.945235 0.910605

Courant Number mean: 0.00253893 max: 1.41501
deltaT = 2.44038e-06
 MassFlows:   inlet = -0.000452778  outlet = 0.000417821
Calculating averages

Time = 0.000309371

Evolving Spray
diagonal:  Solving for rho, Initial residual = 0, Final residual = 0, No Iterations 0
DILUPBiCG:  Solving for Ux, Initial residual = 0.0045852, Final residual = 1.62272e-07, No Iterations 2
DILUPBiCG:  Solving for Uy, Initial residual = 6.27051e-05, Final residual = 2.51178e-07, No Iterations 1
DILUPBiCG:  Solving for Uz, Initial residual = 0.000166146, Final residual = 5.351e-08, No Iterations 1
DILUPBiCG:  Solving for iC3H8O, Initial residual = 0, Final residual = 0, No Iterations 0
DILUPBiCG:  Solving for O2, Initial residual = 0.00259661, Final residual = 2.02012e-07, No Iterations 2
DILUPBiCG:  Solving for CO2, Initial residual = 0, Final residual = 0, No Iterations 0
DILUPBiCG:  Solving for H2O, Initial residual = 0.0151663, Final residual = 1.36912e-08, No Iterations 3
DILUPBiCG:  Solving for h, Initial residual = 0.00572258, Final residual = 4.29713e-07, No Iterations 2
[3] 
[3] 
[3] --> FOAM FATAL ERROR: 
[3] attempt to use janafThermo<equationOfState> out of temperature range 200 -> 5000;  T = -125.905
[3] 
[3]     From function janafThermo<equationOfState>::checkT(const scalar T) const
[3]     in file /home/neln/install/OpenFOAM/OpenFOAM-1.6.x/src/thermophysicalModels/specie/lnInclude/janafThermoI.H at line 64.
[3] 
FOAM parallel run aborting
[3] 
[3] #0  Foam::error::printStack(Foam::Ostream&) in "/export/apps/OpenFOAM/OpenFOAM-1.6.x/lib/linux64GccDPOpt/libOpenFOAM.so"
[3] #1  Foam::error::abort() in "/export/apps/OpenFOAM/OpenFOAM-1.6.x/lib/linux64GccDPOpt/libOpenFOAM.so"
[3] #2  Foam::specieThermo<Foam::janafThermo<Foam::perfectGas> >::H(double) const in "/export/apps/OpenFOAM/OpenFOAM-1.6.x/lib/linux64GccDPOpt/libreactionThermophysicalModels.so"
[3] #3  Foam::hPsiMixtureThermo<Foam::reactingMixture<Foam::sutherlandTransport<Foam::specieThermo<Foam::janafThermo<Foam::perfectGas> > > > >::calculate() in "/export/apps/OpenFOAM/OpenFOAM-1.6.x/lib/linux64GccDPOpt/libreactionThermophysicalModels.so"
[3] #4  Foam::hPsiMixtureThermo<Foam::reactingMixture<Foam::sutherlandTransport<Foam::specieThermo<Foam::janafThermo<Foam::perfectGas> > > > >::correct() in "/export/apps/OpenFOAM/OpenFOAM-1.6.x/lib/linux64GccDPOpt/libreactionThermophysicalModels.so"
[3] #5  main in "/home/rodrigo/OpenFOAM/rodrigo-1.6.x/applications/bin/linux64GccDPOpt/myDieselFoam"
[3] #6  __libc_start_main in "/lib64/libc.so.6"
[3] #7  Foam::regIOobject::writeObject(Foam::IOstream::streamFormat, Foam::IOstream::versionNumber, Foam::IOstream::compressionType) const in "/home/rodrigo/OpenFOAM/rodrigo-1.6.x/applications/bin/linux64GccDPOpt/myDieselFoam"
--------------------------------------------------------------------------
MPI_ABORT was invoked on rank 3 in communicator MPI_COMM_WORLD 
with errorcode 1.

NOTE: invoking MPI_ABORT causes Open MPI to kill all MPI processes.
You may or may not see output from other processes, depending on
exactly when Open MPI kills them.
--------------------------------------------------------------------------
--------------------------------------------------------------------------
mpirun has exited due to process rank 3 with PID 10180 on
node lcft.ita.br exiting without calling "finalize". This may
have caused other processes in the application to be
terminated by signals sent by mpirun (as reported here).
--------------------------------------------------------------------------
