/*---------------------------------------------------------------------------*\
| =========                 |                                                 |
| \\      /  F ield         | OpenFOAM: The Open Source CFD Toolbox           |
|  \\    /   O peration     | Version:  1.6                                   |
|   \\  /    A nd           | Web:      www.OpenFOAM.org                      |
|    \\/     M anipulation  |                                                 |
\*---------------------------------------------------------------------------*/
Build  : 1.6-f802ff2d6c5a
Exec   : dieselFoam
Date   : Feb 28 2010
Time   : 14:34:25
Host   : rodrigo-laptop
PID    : 26239
Case   : /home/rodrigo/OpenFOAM/run/spraybench/2D/spray_1
nProcs : 1
SigFpe : Enabling floating point exception trapping (FOAM_SIGFPE).

// * * * * * * * * * * * * * * * * * * * * * * * * * * * * * * * * * * * * * //
Create time

Create mesh for time = 0

// using new solver syntax:
rho
{
    solver          PCG;
    preconditioner  DIC;
    tolerance       1e-06;
    relTol          0;
}

// using new solver syntax:
U
{
    solver          PBiCG;
    preconditioner  DILU;
    tolerance       1e-06;
    relTol          0;
}

// using new solver syntax:
p
{
    solver          PCG;
    preconditioner  DIC;
    tolerance       1e-09;
    relTol          0;
}

// using new solver syntax:
Yi
{
    solver          PBiCG;
    preconditioner  DILU;
    tolerance       1e-06;
    relTol          0;
}

// using new solver syntax:
h
{
    solver          PBiCG;
    preconditioner  DILU;
    tolerance       1e-06;
    relTol          0;
}

// using new solver syntax:
k
{
    solver          PBiCG;
    preconditioner  DILU;
    tolerance       1e-06;
    relTol          0;
}

// using new solver syntax:
epsilon
{
    solver          PBiCG;
    preconditioner  DILU;
    tolerance       1e-06;
    relTol          0;
}


Reading thermophysicalProperties
Selecting psiChemistryModel ODEChemistryModel<gasThermoPhysics>
Selecting thermodynamics package hPsiMixtureThermo<reactingMixture<gasThermoPhysics>>
Selecting chemistryReader chemkinReader
Selecting chemistrySolver ode
Selecting ODE solver SIBS
ODEChemistryModel: Number of species = 5 and reactions = 1
Reading field U

Reading/calculating face flux field phi

Creating turbulence model.

Selecting turbulence model type RASModel
Selecting RAS turbulence model kEpsilon
kEpsilonCoeffs
{
    Cmu             0.09;
    C1              1.44;
    C2              1.92;
    alphaEps        0.76923;
    C3              -0.33;
    sigmak          1;
    sigmaEps        1.3;
    Prt             1;
}

Creating field DpDt


Reading g
Reading combustion properties

Constructing Spray
--> FOAM Warning : 
    From function Cloud<ParticleType>::initCloud(const bool checkClass)
    in file /home/dm2/henry/OpenFOAM/OpenFOAM-1.6/src/lagrangian/basic/lnInclude/CloudIO.C at line 51
    Cannot read particle positions file 
    "/home/rodrigo/OpenFOAM/run/spraybench/2D/spray_1/0/lagrangian/defaultCloud"
    assuming the initial cloud contains 0 particles.
Selecting injectorType definedInjector
Selecting injectorType definedInjector
Selecting injectorType definedInjector
Selecting injectorType definedInjector
Selecting injectorType definedInjector
Selecting injectorType definedInjector
Selecting injectorType definedInjector
Selecting injectorType definedInjector
Selecting injectorType definedInjector
Selecting injectorType definedInjector
Selecting atomizationModel off
Selecting dragModel standardDragModel
Selecting evaporationModel off
Selecting heatTransferModel off
Selecting wallModel reflect
Selecting breakupModel off
Selecting collisionModel off
Selecting dispersionModel off
Selecting injectorModel hollowConeInjector
Selecting pdfType lognormal
Average Velocity for injector 0: 15 m/s, injection pressure = 2.11738 bar
Average Velocity for injector 1: 15 m/s, injection pressure = 2.11738 bar
Average Velocity for injector 2: 15 m/s, injection pressure = 2.11738 bar
Average Velocity for injector 3: 15 m/s, injection pressure = 2.11738 bar
Average Velocity for injector 4: 15 m/s, injection pressure = 2.11738 bar
Average Velocity for injector 5: 15 m/s, injection pressure = 2.11738 bar
Average Velocity for injector 6: 15 m/s, injection pressure = 2.11738 bar
Average Velocity for injector 7: 15 m/s, injection pressure = 2.11738 bar
Average Velocity for injector 8: 15 m/s, injection pressure = 2.11738 bar
Average Velocity for injector 9: 15 m/s, injection pressure = 2.11738 bar
Constructing two dimensional spray injection.Calculated angle of wedge is 2.72849 deg.
Courant Number mean: 0.00218762 max: 0.295586

Starting time loop

Courant Number mean: 0.00218762 max: 0.295586
deltaT = 1e-05
--> FOAM Warning : 
    From function SolverInfo::SolverInfo(const dictionary& dict,const objectRegistry &obr)
    in file SolverInfo/SolverInfo.C at line 88
    Neither LES nor RANS found. Assuming no turbulence
Reading/calculating field UMean

Reading/calculating field pMean

Reading/calculating field UPrime2Mean

Reading/calculating field pPrime2Mean

fieldAverage: starting averaging at time 0

Time = 1e-05

Evolving Spray
Solving chemistry
diagonal:  Solving for rho, Initial residual = 0, Final residual = 0, No Iterations 0
DILUPBiCG:  Solving for Ux, Initial residual = 0.000264636, Final residual = 7.79728e-07, No Iterations 1
DILUPBiCG:  Solving for Uy, Initial residual = 0.928287, Final residual = 3.60895e-08, No Iterations 4
DILUPBiCG:  Solving for Uz, Initial residual = 4.54388e-05, Final residual = 8.93714e-08, No Iterations 1
DILUPBiCG:  Solving for iC3H8O, Initial residual = 0, Final residual = 0, No Iterations 0
DILUPBiCG:  Solving for O2, Initial residual = 0.000318664, Final residual = 3.85665e-07, No Iterations 1
DILUPBiCG:  Solving for CO2, Initial residual = 0, Final residual = 0, No Iterations 0
DILUPBiCG:  Solving for H2O, Initial residual = 0, Final residual = 0, No Iterations 0
DILUPBiCG:  Solving for h, Initial residual = 0.000237342, Final residual = 9.74541e-07, No Iterations 1
DICPCG:  Solving for p, Initial residual = 0.120605, Final residual = 8.52243e-10, No Iterations 36
DICPCG:  Solving for p, Initial residual = 8.96447e-10, Final residual = 8.96447e-10, No Iterations 0
diagonal:  Solving for rho, Initial residual = 0, Final residual = 0, No Iterations 0
time step continuity errors : sum local = 8.61138e-14, global = 1.58782e-15, cumulative = 1.58782e-15
DICPCG:  Solving for p, Initial residual = 0.00418923, Final residual = 8.4855e-10, No Iterations 28
DICPCG:  Solving for p, Initial residual = 9.05692e-10, Final residual = 9.05692e-10, No Iterations 0
diagonal:  Solving for rho, Initial residual = 0, Final residual = 0, No Iterations 0
time step continuity errors : sum local = 8.67178e-14, global = 1.14968e-14, cumulative = 1.30846e-14
DILUPBiCG:  Solving for epsilon, Initial residual = 0.000463929, Final residual = 9.39542e-09, No Iterations 2
DILUPBiCG:  Solving for k, Initial residual = 0.000132442, Final residual = 7.41267e-07, No Iterations 1

Number of parcels in system.... | 10
Injected liquid mass........... | 0.0044 mg
Liquid Mass in system.......... | 0.0044 mg
SMD, Dmax...................... | 30.5762 mu, 71.8118 mu
Added gas mass................. | 0.137558 mg
Evaporation Continuity Error... | 0.137558 mg
ExecutionTime = 4.7 s  ClockTime = 5 s

Courant Number mean: 0.00234656 max: 0.250797
deltaT = 1e-05
 MassFlows:   inlet = -0.000452129  outlet = 0.000414964
Calculating averages

Time = 2e-05

Evolving Spray
Solving chemistry
diagonal:  Solving for rho, Initial residual = 0, Final residual = 0, No Iterations 0
DILUPBiCG:  Solving for Ux, Initial residual = 0.00237213, Final residual = 5.95298e-08, No Iterations 2
DILUPBiCG:  Solving for Uy, Initial residual = 0.00235514, Final residual = 6.22332e-08, No Iterations 2
DILUPBiCG:  Solving for Uz, Initial residual = 7.04729e-05, Final residual = 1.82905e-07, No Iterations 1
DILUPBiCG:  Solving for iC3H8O, Initial residual = 0, Final residual = 0, No Iterations 0
DILUPBiCG:  Solving for O2, Initial residual = 0.000251445, Final residual = 2.29281e-07, No Iterations 1
DILUPBiCG:  Solving for CO2, Initial residual = 0, Final residual = 0, No Iterations 0
DILUPBiCG:  Solving for H2O, Initial residual = 0, Final residual = 0, No Iterations 0
DILUPBiCG:  Solving for h, Initial residual = 0.109738, Final residual = 6.44793e-08, No Iterations 3
DICPCG:  Solving for p, Initial residual = 0.157461, Final residual = 9.17548e-10, No Iterations 30
DICPCG:  Solving for p, Initial residual = 6.67294e-10, Final residual = 6.67294e-10, No Iterations 0
diagonal:  Solving for rho, Initial residual = 0, Final residual = 0, No Iterations 0
time step continuity errors : sum local = 1.02618e-13, global = -8.14625e-15, cumulative = 4.9384e-15
DICPCG:  Solving for p, Initial residual = 0.00143043, Final residual = 6.9462e-10, No Iterations 22
DICPCG:  Solving for p, Initial residual = 7.13318e-10, Final residual = 7.13318e-10, No Iterations 0
diagonal:  Solving for rho, Initial residual = 0, Final residual = 0, No Iterations 0
time step continuity errors : sum local = 1.0964e-13, global = -1.5697e-14, cumulative = -1.07586e-14
DILUPBiCG:  Solving for epsilon, Initial residual = 0.000453182, Final residual = 6.00166e-07, No Iterations 1
DILUPBiCG:  Solving for k, Initial residual = 0.00012894, Final residual = 3.47036e-07, No Iterations 1

Number of parcels in system.... | 20
Injected liquid mass........... | 0.0088 mg
Liquid Mass in system.......... | 0.0088 mg
SMD, Dmax...................... | 24.5532 mu, 71.8118 mu
Added gas mass................. | 0.308614 mg
Evaporation Continuity Error... | 0.308614 mg
ExecutionTime = 6.93 s  ClockTime = 8 s

Courant Number mean: 0.002389 max: 0.282774
deltaT = 1e-05
 MassFlows:   inlet = -0.000451543  outlet = 0.000418879
Calculating averages

Time = 3e-05

Evolving Spray
Solving chemistry
diagonal:  Solving for rho, Initial residual = 0, Final residual = 0, No Iterations 0
DILUPBiCG:  Solving for Ux, Initial residual = 0.00497292, Final residual = 9.00611e-08, No Iterations 2
DILUPBiCG:  Solving for Uy, Initial residual = 0.00237186, Final residual = 7.60242e-08, No Iterations 2
DILUPBiCG:  Solving for Uz, Initial residual = 0.000116025, Final residual = 1.60274e-07, No Iterations 1
DILUPBiCG:  Solving for iC3H8O, Initial residual = 0, Final residual = 0, No Iterations 0
DILUPBiCG:  Solving for O2, Initial residual = 0.000208995, Final residual = 2.51778e-07, No Iterations 1
DILUPBiCG:  Solving for CO2, Initial residual = 0, Final residual = 0, No Iterations 0
DILUPBiCG:  Solving for H2O, Initial residual = 0, Final residual = 0, No Iterations 0
DILUPBiCG:  Solving for h, Initial residual = 0.160458, Final residual = 9.40665e-08, No Iterations 3
DICPCG:  Solving for p, Initial residual = 0.122256, Final residual = 6.08414e-10, No Iterations 30
DICPCG:  Solving for p, Initial residual = 3.92288e-10, Final residual = 3.92288e-10, No Iterations 0
diagonal:  Solving for rho, Initial residual = 0, Final residual = 0, No Iterations 0
time step continuity errors : sum local = 1.05479e-13, global = -6.23377e-15, cumulative = -1.69924e-14
DICPCG:  Solving for p, Initial residual = 0.000899689, Final residual = 5.82246e-10, No Iterations 22
DICPCG:  Solving for p, Initial residual = 5.92086e-10, Final residual = 5.92086e-10, No Iterations 0
diagonal:  Solving for rho, Initial residual = 0, Final residual = 0, No Iterations 0
time step continuity errors : sum local = 1.59244e-13, global = -2.92567e-14, cumulative = -4.62491e-14
DILUPBiCG:  Solving for epsilon, Initial residual = 0.00044403, Final residual = 5.60501e-07, No Iterations 1
DILUPBiCG:  Solving for k, Initial residual = 0.000127355, Final residual = 3.38414e-07, No Iterations 1

Number of parcels in system.... | 30
Injected liquid mass........... | 0.0132 mg
Liquid Mass in system.......... | 0.0132 mg
SMD, Dmax...................... | 23.4304 mu, 71.8118 mu
Added gas mass................. | 0.477672 mg
Evaporation Continuity Error... | 0.477672 mg
ExecutionTime = 9.09 s  ClockTime = 10 s

Courant Number mean: 0.00238648 max: 0.292184
deltaT = 1e-05
 MassFlows:   inlet = -0.000451191  outlet = 0.000420289
Calculating averages

Time = 4e-05

Evolving Spray
Solving chemistry
diagonal:  Solving for rho, Initial residual = 0, Final residual = 0, No Iterations 0
DILUPBiCG:  Solving for Ux, Initial residual = 0.00709869, Final residual = 7.84011e-08, No Iterations 2
DILUPBiCG:  Solving for Uy, Initial residual = 0.00184486, Final residual = 4.58655e-08, No Iterations 2
DILUPBiCG:  Solving for Uz, Initial residual = 0.000173295, Final residual = 1.28196e-07, No Iterations 1
DILUPBiCG:  Solving for iC3H8O, Initial residual = 0, Final residual = 0, No Iterations 0
DILUPBiCG:  Solving for O2, Initial residual = 0.000177989, Final residual = 2.30981e-07, No Iterations 1
DILUPBiCG:  Solving for CO2, Initial residual = 0, Final residual = 0, No Iterations 0
DILUPBiCG:  Solving for H2O, Initial residual = 0, Final residual = 0, No Iterations 0
DILUPBiCG:  Solving for h, Initial residual = 0.118507, Final residual = 1.92115e-07, No Iterations 3
DICPCG:  Solving for p, Initial residual = 0.0783923, Final residual = 8.42032e-10, No Iterations 28
DICPCG:  Solving for p, Initial residual = 5.83757e-10, Final residual = 5.83757e-10, No Iterations 0
diagonal:  Solving for rho, Initial residual = 0, Final residual = 0, No Iterations 0
time step continuity errors : sum local = 2.40156e-13, global = 1.78901e-14, cumulative = -2.83591e-14
DICPCG:  Solving for p, Initial residual = 0.000632104, Final residual = 6.70649e-10, No Iterations 21
DICPCG:  Solving for p, Initial residual = 6.76564e-10, Final residual = 6.76564e-10, No Iterations 0
diagonal:  Solving for rho, Initial residual = 0, Final residual = 0, No Iterations 0
time step continuity errors : sum local = 2.78465e-13, global = -4.03074e-14, cumulative = -6.86664e-14
DILUPBiCG:  Solving for epsilon, Initial residual = 0.000435341, Final residual = 5.50841e-07, No Iterations 1
DILUPBiCG:  Solving for k, Initial residual = 0.000126042, Final residual = 3.38434e-07, No Iterations 1

Number of parcels in system.... | 40
Injected liquid mass........... | 0.0176 mg
Liquid Mass in system.......... | 0.0176 mg
SMD, Dmax...................... | 23.8082 mu, 71.8118 mu
Added gas mass................. | 0.636997 mg
Evaporation Continuity Error... | 0.636997 mg
ExecutionTime = 10.81 s  ClockTime = 13 s

Courant Number mean: 0.00236647 max: 0.292972
deltaT = 1e-05
 MassFlows:   inlet = -0.000451072  outlet = 0.000420525
Calculating averages

Time = 5e-05

Evolving Spray
Solving chemistry
diagonal:  Solving for rho, Initial residual = 0, Final residual = 0, No Iterations 0
DILUPBiCG:  Solving for Ux, Initial residual = 0.00826959, Final residual = 9.1484e-08, No Iterations 2
DILUPBiCG:  Solving for Uy, Initial residual = 0.00250579, Final residual = 6.68663e-08, No Iterations 2
DILUPBiCG:  Solving for Uz, Initial residual = 0.000235327, Final residual = 1.11889e-07, No Iterations 1
DILUPBiCG:  Solving for iC3H8O, Initial residual = 0, Final residual = 0, No Iterations 0
DILUPBiCG:  Solving for O2, Initial residual = 0.00015661, Final residual = 2.03303e-07, No Iterations 1
DILUPBiCG:  Solving for CO2, Initial residual = 0, Final residual = 0, No Iterations 0
DILUPBiCG:  Solving for H2O, Initial residual = 0, Final residual = 0, No Iterations 0
DILUPBiCG:  Solving for h, Initial residual = 0.0757488, Final residual = 3.58766e-08, No Iterations 3
DICPCG:  Solving for p, Initial residual = 0.0538589, Final residual = 6.15017e-10, No Iterations 28
DICPCG:  Solving for p, Initial residual = 4.61867e-10, Final residual = 4.61867e-10, No Iterations 0
diagonal:  Solving for rho, Initial residual = 0, Final residual = 0, No Iterations 0
time step continuity errors : sum local = 2.62573e-13, global = 5.17717e-15, cumulative = -6.34892e-14
DICPCG:  Solving for p, Initial residual = 0.000414508, Final residual = 8.80052e-10, No Iterations 19
DICPCG:  Solving for p, Initial residual = 8.83779e-10, Final residual = 8.83779e-10, No Iterations 0
diagonal:  Solving for rho, Initial residual = 0, Final residual = 0, No Iterations 0
time step continuity errors : sum local = 5.02389e-13, global = -5.85405e-14, cumulative = -1.2203e-13
DILUPBiCG:  Solving for epsilon, Initial residual = 0.000427038, Final residual = 5.53713e-07, No Iterations 1
DILUPBiCG:  Solving for k, Initial residual = 0.000124963, Final residual = 3.39451e-07, No Iterations 1

Number of parcels in system.... | 50
Injected liquid mass........... | 0.022 mg
Liquid Mass in system.......... | 0.022 mg
SMD, Dmax...................... | 23.6736 mu, 71.8118 mu
Added gas mass................. | 0.785406 mg
Evaporation Continuity Error... | 0.785406 mg
ExecutionTime = 12.85 s  ClockTime = 16 s

Courant Number mean: 0.00234637 max: 0.290459
deltaT = 1e-05
 MassFlows:   inlet = -0.000451116  outlet = 0.000420237
Calculating averages

Time = 6e-05

Evolving Spray
Solving chemistry
diagonal:  Solving for rho, Initial residual = 0, Final residual = 0, No Iterations 0
DILUPBiCG:  Solving for Ux, Initial residual = 0.00941663, Final residual = 1.11853e-07, No Iterations 2
DILUPBiCG:  Solving for Uy, Initial residual = 0.00405536, Final residual = 1.01275e-07, No Iterations 2
DILUPBiCG:  Solving for Uz, Initial residual = 0.000299561, Final residual = 1.40116e-07, No Iterations 1
DILUPBiCG:  Solving for iC3H8O, Initial residual = 0, Final residual = 0, No Iterations 0
DILUPBiCG:  Solving for O2, Initial residual = 0.000141616, Final residual = 1.57857e-07, No Iterations 1
DILUPBiCG:  Solving for CO2, Initial residual = 0, Final residual = 0, No Iterations 0
DILUPBiCG:  Solving for H2O, Initial residual = 0, Final residual = 0, No Iterations 0
DILUPBiCG:  Solving for h, Initial residual = 0.0515617, Final residual = 5.60514e-07, No Iterations 2
DICPCG:  Solving for p, Initial residual = 0.0390356, Final residual = 7.51117e-10, No Iterations 27
DICPCG:  Solving for p, Initial residual = 5.95111e-10, Final residual = 5.95111e-10, No Iterations 0
diagonal:  Solving for rho, Initial residual = 0, Final residual = 0, No Iterations 0
time step continuity errors : sum local = 4.36074e-13, global = -1.80197e-14, cumulative = -1.40049e-13
DICPCG:  Solving for p, Initial residual = 0.000323207, Final residual = 9.11524e-10, No Iterations 19
DICPCG:  Solving for p, Initial residual = 9.14613e-10, Final residual = 9.14613e-10, No Iterations 0
diagonal:  Solving for rho, Initial residual = 0, Final residual = 0, No Iterations 0
time step continuity errors : sum local = 6.70123e-13, global = 1.79582e-14, cumulative = -1.22091e-13
DILUPBiCG:  Solving for epsilon, Initial residual = 0.000419022, Final residual = 5.5343e-07, No Iterations 1
DILUPBiCG:  Solving for k, Initial residual = 0.000124101, Final residual = 3.41803e-07, No Iterations 1

Number of parcels in system.... | 60
Injected liquid mass........... | 0.0264 mg
Liquid Mass in system.......... | 0.0264 mg
SMD, Dmax...................... | 23.4808 mu, 71.8118 mu
Added gas mass................. | 0.926291 mg
Evaporation Continuity Error... | 0.926291 mg
ExecutionTime = 14.97 s  ClockTime = 20 s

Courant Number mean: 0.0023364 max: 0.28694
deltaT = 1e-05
 MassFlows:   inlet = -0.000451262  outlet = 0.000419801
Calculating averages

Time = 7e-05

Evolving Spray
Solving chemistry
diagonal:  Solving for rho, Initial residual = 0, Final residual = 0, No Iterations 0
DILUPBiCG:  Solving for Ux, Initial residual = 0.0113874, Final residual = 1.18037e-07, No Iterations 2
DILUPBiCG:  Solving for Uy, Initial residual = 0.00846642, Final residual = 1.88849e-07, No Iterations 2
DILUPBiCG:  Solving for Uz, Initial residual = 0.000358889, Final residual = 1.85309e-07, No Iterations 1
DILUPBiCG:  Solving for iC3H8O, Initial residual = 0, Final residual = 0, No Iterations 0
DILUPBiCG:  Solving for O2, Initial residual = 0.000130559, Final residual = 1.70061e-07, No Iterations 1
DILUPBiCG:  Solving for CO2, Initial residual = 0, Final residual = 0, No Iterations 0
DILUPBiCG:  Solving for H2O, Initial residual = 0, Final residual = 0, No Iterations 0
DILUPBiCG:  Solving for h, Initial residual = 0.0373552, Final residual = 8.77895e-07, No Iterations 2
DICPCG:  Solving for p, Initial residual = 0.0298709, Final residual = 8.22892e-10, No Iterations 27
DICPCG:  Solving for p, Initial residual = 6.7888e-10, Final residual = 6.7888e-10, No Iterations 0
diagonal:  Solving for rho, Initial residual = 0, Final residual = 0, No Iterations 0
time step continuity errors : sum local = 6.10866e-13, global = 1.80324e-14, cumulative = -1.04059e-13
DICPCG:  Solving for p, Initial residual = 0.000258863, Final residual = 7.90942e-10, No Iterations 19
DICPCG:  Solving for p, Initial residual = 7.93529e-10, Final residual = 7.93529e-10, No Iterations 0
diagonal:  Solving for rho, Initial residual = 0, Final residual = 0, No Iterations 0
time step continuity errors : sum local = 7.13733e-13, global = 4.56788e-14, cumulative = -5.83801e-14
DILUPBiCG:  Solving for epsilon, Initial residual = 0.00041149, Final residual = 5.52596e-07, No Iterations 1
DILUPBiCG:  Solving for k, Initial residual = 0.000123488, Final residual = 3.44125e-07, No Iterations 1

Number of parcels in system.... | 70
Injected liquid mass........... | 0.0308 mg
Liquid Mass in system.......... | 0.0308 mg
SMD, Dmax...................... | 23.3268 mu, 71.8118 mu
Added gas mass................. | 1.07126 mg
Evaporation Continuity Error... | 1.07126 mg
ExecutionTime = 17.14 s  ClockTime = 23 s

Courant Number mean: 0.00233527 max: 0.283499
deltaT = 1e-05
 MassFlows:   inlet = -0.00045147  outlet = 0.000419383
Calculating averages

Time = 8e-05

Evolving Spray
Solving chemistry
diagonal:  Solving for rho, Initial residual = 0, Final residual = 0, No Iterations 0
DILUPBiCG:  Solving for Ux, Initial residual = 0.0130467, Final residual = 1.52776e-07, No Iterations 2
DILUPBiCG:  Solving for Uy, Initial residual = 0.00311251, Final residual = 5.72384e-08, No Iterations 2
DILUPBiCG:  Solving for Uz, Initial residual = 0.000408574, Final residual = 2.1444e-07, No Iterations 1
DILUPBiCG:  Solving for iC3H8O, Initial residual = 0, Final residual = 0, No Iterations 0
DILUPBiCG:  Solving for O2, Initial residual = 0.000121974, Final residual = 1.74352e-07, No Iterations 1
DILUPBiCG:  Solving for CO2, Initial residual = 0, Final residual = 0, No Iterations 0
DILUPBiCG:  Solving for H2O, Initial residual = 0, Final residual = 0, No Iterations 0
DILUPBiCG:  Solving for h, Initial residual = 0.0287189, Final residual = 6.00833e-07, No Iterations 2
DICPCG:  Solving for p, Initial residual = 0.0253845, Final residual = 8.13442e-10, No Iterations 27
DICPCG:  Solving for p, Initial residual = 6.9696e-10, Final residual = 6.9696e-10, No Iterations 0
diagonal:  Solving for rho, Initial residual = 0, Final residual = 0, No Iterations 0
time step continuity errors : sum local = 7.37405e-13, global = 2.51079e-14, cumulative = -3.32722e-14
DICPCG:  Solving for p, Initial residual = 0.000259611, Final residual = 9.47676e-10, No Iterations 18
DICPCG:  Solving for p, Initial residual = 9.50077e-10, Final residual = 9.50077e-10, No Iterations 0
diagonal:  Solving for rho, Initial residual = 0, Final residual = 0, No Iterations 0
time step continuity errors : sum local = 1.00462e-12, global = -4.02189e-15, cumulative = -3.72941e-14
DILUPBiCG:  Solving for epsilon, Initial residual = 0.000404608, Final residual = 5.53409e-07, No Iterations 1
DILUPBiCG:  Solving for k, Initial residual = 0.00012308, Final residual = 3.48942e-07, No Iterations 1

Number of parcels in system.... | 80
Injected liquid mass........... | 0.0352 mg
Liquid Mass in system.......... | 0.0352 mg
SMD, Dmax...................... | 23.7848 mu, 71.8118 mu
Added gas mass................. | 1.23724 mg
Evaporation Continuity Error... | 1.23724 mg
ExecutionTime = 19.29 s  ClockTime = 26 s

Courant Number mean: 0.00234377 max: 0.280679
deltaT = 1e-05
 MassFlows:   inlet = -0.000451709  outlet = 0.000419035
Calculating averages

Time = 9e-05

Evolving Spray
Solving chemistry
diagonal:  Solving for rho, Initial residual = 0, Final residual = 0, No Iterations 0
DILUPBiCG:  Solving for Ux, Initial residual = 0.014629, Final residual = 1.88778e-07, No Iterations 2
DILUPBiCG:  Solving for Uy, Initial residual = 0.001568, Final residual = 4.58199e-08, No Iterations 2
DILUPBiCG:  Solving for Uz, Initial residual = 0.00044895, Final residual = 2.17787e-07, No Iterations 1
DILUPBiCG:  Solving for iC3H8O, Initial residual = 0, Final residual = 0, No Iterations 0
DILUPBiCG:  Solving for O2, Initial residual = 0.000114992, Final residual = 1.13557e-07, No Iterations 1
DILUPBiCG:  Solving for CO2, Initial residual = 0, Final residual = 0, No Iterations 0
DILUPBiCG:  Solving for H2O, Initial residual = 0, Final residual = 0, No Iterations 0
DILUPBiCG:  Solving for h, Initial residual = 0.0240346, Final residual = 7.18773e-09, No Iterations 3
DICPCG:  Solving for p, Initial residual = 0.0227355, Final residual = 7.39573e-10, No Iterations 27
DICPCG:  Solving for p, Initial residual = 6.60033e-10, Final residual = 6.60033e-10, No Iterations 0
diagonal:  Solving for rho, Initial residual = 0, Final residual = 0, No Iterations 0
time step continuity errors : sum local = 7.86654e-13, global = -6.44179e-16, cumulative = -3.79382e-14
DICPCG:  Solving for p, Initial residual = 0.000280141, Final residual = 4.85663e-10, No Iterations 19
DICPCG:  Solving for p, Initial residual = 4.87844e-10, Final residual = 4.87844e-10, No Iterations 0
diagonal:  Solving for rho, Initial residual = 0, Final residual = 0, No Iterations 0
time step continuity errors : sum local = 5.81002e-13, global = -3.54225e-14, cumulative = -7.33608e-14
DILUPBiCG:  Solving for epsilon, Initial residual = 0.000398281, Final residual = 5.57057e-07, No Iterations 1
DILUPBiCG:  Solving for k, Initial residual = 0.000122609, Final residual = 3.55985e-07, No Iterations 1

Number of parcels in system.... | 90
Injected liquid mass........... | 0.0396 mg
Liquid Mass in system.......... | 0.0396 mg
SMD, Dmax...................... | 24.0081 mu, 77.0388 mu
Added gas mass................. | 1.43779 mg
Evaporation Continuity Error... | 1.43779 mg
ExecutionTime = 21.41 s  ClockTime = 29 s

Courant Number mean: 0.00236449 max: 0.278431
deltaT = 1e-05
 MassFlows:   inlet = -0.000451954  outlet = 0.000418758
Calculating averages

Time = 0.0001

Evolving Spray
Solving chemistry
diagonal:  Solving for rho, Initial residual = 0, Final residual = 0, No Iterations 0
DILUPBiCG:  Solving for Ux, Initial residual = 0.0173289, Final residual = 1.83377e-07, No Iterations 2
DILUPBiCG:  Solving for Uy, Initial residual = 0.00222236, Final residual = 5.7391e-08, No Iterations 2
DILUPBiCG:  Solving for Uz, Initial residual = 0.000482067, Final residual = 2.02053e-07, No Iterations 1
DILUPBiCG:  Solving for iC3H8O, Initial residual = 0, Final residual = 0, No Iterations 0
DILUPBiCG:  Solving for O2, Initial residual = 0.00010912, Final residual = 1.25749e-07, No Iterations 1
DILUPBiCG:  Solving for CO2, Initial residual = 0, Final residual = 0, No Iterations 0
DILUPBiCG:  Solving for H2O, Initial residual = 0, Final residual = 0, No Iterations 0
DILUPBiCG:  Solving for h, Initial residual = 0.0214576, Final residual = 6.795e-07, No Iterations 2
DICPCG:  Solving for p, Initial residual = 0.0209775, Final residual = 7.18856e-10, No Iterations 27
DICPCG:  Solving for p, Initial residual = 6.6966e-10, Final residual = 6.6966e-10, No Iterations 0
diagonal:  Solving for rho, Initial residual = 0, Final residual = 0, No Iterations 0
time step continuity errors : sum local = 8.60364e-13, global = -5.49165e-15, cumulative = -7.88524e-14
DICPCG:  Solving for p, Initial residual = 0.000265785, Final residual = 6.64694e-10, No Iterations 19
DICPCG:  Solving for p, Initial residual = 6.66578e-10, Final residual = 6.66578e-10, No Iterations 0
diagonal:  Solving for rho, Initial residual = 0, Final residual = 0, No Iterations 0
time step continuity errors : sum local = 8.55913e-13, global = -9.15848e-14, cumulative = -1.70437e-13
DILUPBiCG:  Solving for epsilon, Initial residual = 0.000392132, Final residual = 5.62358e-07, No Iterations 1
DILUPBiCG:  Solving for k, Initial residual = 0.000121868, Final residual = 3.60869e-07, No Iterations 1

Number of parcels in system.... | 100
Injected liquid mass........... | 0.044 mg
Liquid Mass in system.......... | 0.044 mg
SMD, Dmax...................... | 23.9388 mu, 77.0388 mu
Added gas mass................. | 1.67727 mg
Evaporation Continuity Error... | 1.67727 mg
ExecutionTime = 24.61 s  ClockTime = 33 s

Courant Number mean: 0.00239417 max: 0.276529
deltaT = 1e-05
 MassFlows:   inlet = -0.000452186  outlet = 0.000418541
Calculating averages

Time = 0.00011

Evolving Spray
Solving chemistry
diagonal:  Solving for rho, Initial residual = 0, Final residual = 0, No Iterations 0
DILUPBiCG:  Solving for Ux, Initial residual = 0.0208596, Final residual = 1.78428e-07, No Iterations 2
DILUPBiCG:  Solving for Uy, Initial residual = 0.00248466, Final residual = 7.74943e-08, No Iterations 2
DILUPBiCG:  Solving for Uz, Initial residual = 0.000508031, Final residual = 1.69846e-07, No Iterations 1
DILUPBiCG:  Solving for iC3H8O, Initial residual = 0, Final residual = 0, No Iterations 0
DILUPBiCG:  Solving for O2, Initial residual = 0.000104201, Final residual = 1.22764e-07, No Iterations 1
DILUPBiCG:  Solving for CO2, Initial residual = 0, Final residual = 0, No Iterations 0
DILUPBiCG:  Solving for H2O, Initial residual = 0, Final residual = 0, No Iterations 0
DILUPBiCG:  Solving for h, Initial residual = 0.0199457, Final residual = 4.84405e-07, No Iterations 2
DICPCG:  Solving for p, Initial residual = 0.0206879, Final residual = 6.84447e-10, No Iterations 27
DICPCG:  Solving for p, Initial residual = 6.65183e-10, Final residual = 6.65183e-10, No Iterations 0
diagonal:  Solving for rho, Initial residual = 0, Final residual = 0, No Iterations 0
time step continuity errors : sum local = 8.82882e-13, global = -1.20616e-14, cumulative = -1.82499e-13
DICPCG:  Solving for p, Initial residual = 0.000305536, Final residual = 7.30758e-10, No Iterations 19
DICPCG:  Solving for p, Initial residual = 7.32281e-10, Final residual = 7.32281e-10, No Iterations 0
diagonal:  Solving for rho, Initial residual = 0, Final residual = 0, No Iterations 0
time step continuity errors : sum local = 9.71844e-13, global = -8.209e-14, cumulative = -2.64589e-13
DILUPBiCG:  Solving for epsilon, Initial residual = 0.000385726, Final residual = 5.59388e-07, No Iterations 1
DILUPBiCG:  Solving for k, Initial residual = 0.000120901, Final residual = 3.61276e-07, No Iterations 1

Number of parcels in system.... | 110
Injected liquid mass........... | 0.0484 mg
Liquid Mass in system.......... | 0.0484 mg
SMD, Dmax...................... | 24.3625 mu, 77.0388 mu
Added gas mass................. | 1.95222 mg
Evaporation Continuity Error... | 1.95222 mg
ExecutionTime = 27.27 s  ClockTime = 36 s

Courant Number mean: 0.00242064 max: 0.27489
deltaT = 1e-05
 MassFlows:   inlet = -0.000452391  outlet = 0.00041837
Calculating averages

Time = 0.00012

Evolving Spray
Solving chemistry
diagonal:  Solving for rho, Initial residual = 0, Final residual = 0, No Iterations 0
DILUPBiCG:  Solving for Ux, Initial residual = 0.0246299, Final residual = 2.52594e-07, No Iterations 2
DILUPBiCG:  Solving for Uy, Initial residual = 0.00231488, Final residual = 5.78762e-08, No Iterations 2
DILUPBiCG:  Solving for Uz, Initial residual = 0.000531019, Final residual = 1.52478e-07, No Iterations 1
DILUPBiCG:  Solving for iC3H8O, Initial residual = 0, Final residual = 0, No Iterations 0
DILUPBiCG:  Solving for O2, Initial residual = 0.000100012, Final residual = 1.19799e-07, No Iterations 1
DILUPBiCG:  Solving for CO2, Initial residual = 0, Final residual = 0, No Iterations 0
DILUPBiCG:  Solving for H2O, Initial residual = 0, Final residual = 0, No Iterations 0
DILUPBiCG:  Solving for h, Initial residual = 0.0196059, Final residual = 3.90414e-07, No Iterations 2
DICPCG:  Solving for p, Initial residual = 0.0212269, Final residual = 7.13067e-10, No Iterations 27
DICPCG:  Solving for p, Initial residual = 7.1773e-10, Final residual = 7.1773e-10, No Iterations 0
diagonal:  Solving for rho, Initial residual = 0, Final residual = 0, No Iterations 0
time step continuity errors : sum local = 9.49819e-13, global = -3.31924e-14, cumulative = -2.97781e-13
DICPCG:  Solving for p, Initial residual = 0.000368549, Final residual = 5.45891e-10, No Iterations 19
DICPCG:  Solving for p, Initial residual = 5.47354e-10, Final residual = 5.47354e-10, No Iterations 0
diagonal:  Solving for rho, Initial residual = 0, Final residual = 0, No Iterations 0
time step continuity errors : sum local = 7.24657e-13, global = -2.02341e-14, cumulative = -3.18015e-13
DILUPBiCG:  Solving for epsilon, Initial residual = 0.000378946, Final residual = 5.50221e-07, No Iterations 1
DILUPBiCG:  Solving for k, Initial residual = 0.00011993, Final residual = 3.57821e-07, No Iterations 1

Number of parcels in system.... | 120
Injected liquid mass........... | 0.0528 mg
Liquid Mass in system.......... | 0.0528 mg
SMD, Dmax...................... | 24.3986 mu, 77.0388 mu
Added gas mass................. | 2.25599 mg
Evaporation Continuity Error... | 2.25599 mg
ExecutionTime = 29.36 s  ClockTime = 39 s

Courant Number mean: 0.00243616 max: 0.273609
deltaT = 1e-05
 MassFlows:   inlet = -0.000452561  outlet = 0.000418235
Calculating averages

Time = 0.00013

Evolving Spray
Solving chemistry
diagonal:  Solving for rho, Initial residual = 0, Final residual = 0, No Iterations 0
DILUPBiCG:  Solving for Ux, Initial residual = 0.0262189, Final residual = 2.18753e-07, No Iterations 2
DILUPBiCG:  Solving for Uy, Initial residual = 0.00272808, Final residual = 4.0364e-08, No Iterations 2
DILUPBiCG:  Solving for Uz, Initial residual = 0.00055358, Final residual = 1.58732e-07, No Iterations 1
DILUPBiCG:  Solving for iC3H8O, Initial residual = 0, Final residual = 0, No Iterations 0
DILUPBiCG:  Solving for O2, Initial residual = 9.63309e-05, Final residual = 1.33699e-07, No Iterations 1
DILUPBiCG:  Solving for CO2, Initial residual = 0, Final residual = 0, No Iterations 0
DILUPBiCG:  Solving for H2O, Initial residual = 0, Final residual = 0, No Iterations 0
DILUPBiCG:  Solving for h, Initial residual = 0.0199217, Final residual = 2.28037e-07, No Iterations 2
DICPCG:  Solving for p, Initial residual = 0.0224511, Final residual = 7.14891e-10, No Iterations 27
DICPCG:  Solving for p, Initial residual = 7.36384e-10, Final residual = 7.36384e-10, No Iterations 0
diagonal:  Solving for rho, Initial residual = 0, Final residual = 0, No Iterations 0
time step continuity errors : sum local = 9.49551e-13, global = -5.55925e-14, cumulative = -3.73608e-13
DICPCG:  Solving for p, Initial residual = 0.000409495, Final residual = 6.66801e-10, No Iterations 19
DICPCG:  Solving for p, Initial residual = 6.68103e-10, Final residual = 6.68103e-10, No Iterations 0
diagonal:  Solving for rho, Initial residual = 0, Final residual = 0, No Iterations 0
time step continuity errors : sum local = 8.62049e-13, global = 9.2808e-14, cumulative = -2.808e-13
DILUPBiCG:  Solving for epsilon, Initial residual = 0.000372189, Final residual = 5.39427e-07, No Iterations 1
DILUPBiCG:  Solving for k, Initial residual = 0.00011908, Final residual = 3.52867e-07, No Iterations 1

Number of parcels in system.... | 130
Injected liquid mass........... | 0.0572 mg
Liquid Mass in system.......... | 0.0572 mg
SMD, Dmax...................... | 24.6739 mu, 77.0388 mu
Added gas mass................. | 2.58131 mg
Evaporation Continuity Error... | 2.58131 mg
ExecutionTime = 31.46 s  ClockTime = 41 s

Courant Number mean: 0.00244723 max: 0.272764
deltaT = 1e-05
 MassFlows:   inlet = -0.000452697  outlet = 0.000418129
Calculating averages

Time = 0.00014

Evolving Spray
Solving chemistry
diagonal:  Solving for rho, Initial residual = 0, Final residual = 0, No Iterations 0
DILUPBiCG:  Solving for Ux, Initial residual = 0.0256352, Final residual = 1.6625e-07, No Iterations 2
DILUPBiCG:  Solving for Uy, Initial residual = 0.00185011, Final residual = 3.42367e-08, No Iterations 2
DILUPBiCG:  Solving for Uz, Initial residual = 0.000574568, Final residual = 1.70785e-07, No Iterations 1
DILUPBiCG:  Solving for iC3H8O, Initial residual = 0, Final residual = 0, No Iterations 0
DILUPBiCG:  Solving for O2, Initial residual = 9.30289e-05, Final residual = 8.72866e-08, No Iterations 1
DILUPBiCG:  Solving for CO2, Initial residual = 0, Final residual = 0, No Iterations 0
DILUPBiCG:  Solving for H2O, Initial residual = 0, Final residual = 0, No Iterations 0
DILUPBiCG:  Solving for h, Initial residual = 0.0209384, Final residual = 2.96473e-07, No Iterations 2
DICPCG:  Solving for p, Initial residual = 0.0245528, Final residual = 6.81229e-10, No Iterations 27
DICPCG:  Solving for p, Initial residual = 7.08761e-10, Final residual = 7.08761e-10, No Iterations 0
diagonal:  Solving for rho, Initial residual = 0, Final residual = 0, No Iterations 0
time step continuity errors : sum local = 8.82556e-13, global = 1.3432e-14, cumulative = -2.67368e-13
DICPCG:  Solving for p, Initial residual = 0.000482973, Final residual = 5.76787e-10, No Iterations 20
DICPCG:  Solving for p, Initial residual = 5.78343e-10, Final residual = 5.78343e-10, No Iterations 0
diagonal:  Solving for rho, Initial residual = 0, Final residual = 0, No Iterations 0
time step continuity errors : sum local = 7.20492e-13, global = 1.25104e-13, cumulative = -1.42264e-13
DILUPBiCG:  Solving for epsilon, Initial residual = 0.000365812, Final residual = 5.35389e-07, No Iterations 1
DILUPBiCG:  Solving for k, Initial residual = 0.000118252, Final residual = 3.47947e-07, No Iterations 1

Number of parcels in system.... | 140
Injected liquid mass........... | 0.0616 mg
Liquid Mass in system.......... | 0.0616 mg
SMD, Dmax...................... | 24.5294 mu, 79.3432 mu
Added gas mass................. | 2.92219 mg
Evaporation Continuity Error... | 2.92219 mg
ExecutionTime = 33.58 s  ClockTime = 44 s

Courant Number mean: 0.00246905 max: 0.272334
deltaT = 1e-05
 MassFlows:   inlet = -0.000452802  outlet = 0.000418046
Calculating averages

Time = 0.00015

Evolving Spray
Solving chemistry
diagonal:  Solving for rho, Initial residual = 0, Final residual = 0, No Iterations 0
DILUPBiCG:  Solving for Ux, Initial residual = 0.0260259, Final residual = 6.84897e-08, No Iterations 2
DILUPBiCG:  Solving for Uy, Initial residual = 0.00230368, Final residual = 6.23553e-08, No Iterations 2
DILUPBiCG:  Solving for Uz, Initial residual = 0.000595045, Final residual = 1.90075e-07, No Iterations 1
DILUPBiCG:  Solving for iC3H8O, Initial residual = 0, Final residual = 0, No Iterations 0
DILUPBiCG:  Solving for O2, Initial residual = 9.0023e-05, Final residual = 9.17671e-08, No Iterations 1
DILUPBiCG:  Solving for CO2, Initial residual = 0, Final residual = 0, No Iterations 0
DILUPBiCG:  Solving for H2O, Initial residual = 0, Final residual = 0, No Iterations 0
DILUPBiCG:  Solving for h, Initial residual = 0.023147, Final residual = 8.76744e-07, No Iterations 2
DICPCG:  Solving for p, Initial residual = 0.0271307, Final residual = 8.22806e-10, No Iterations 27
DICPCG:  Solving for p, Initial residual = 8.54823e-10, Final residual = 8.54823e-10, No Iterations 0
diagonal:  Solving for rho, Initial residual = 0, Final residual = 0, No Iterations 0
time step continuity errors : sum local = 1.02847e-12, global = 3.70083e-14, cumulative = -1.05255e-13
DICPCG:  Solving for p, Initial residual = 0.000578762, Final residual = 6.29669e-10, No Iterations 20
DICPCG:  Solving for p, Initial residual = 6.31578e-10, Final residual = 6.31578e-10, No Iterations 0
diagonal:  Solving for rho, Initial residual = 0, Final residual = 0, No Iterations 0
time step continuity errors : sum local = 7.6e-13, global = 1.32974e-13, cumulative = 2.77191e-14
DILUPBiCG:  Solving for epsilon, Initial residual = 0.000359511, Final residual = 5.305e-07, No Iterations 1
DILUPBiCG:  Solving for k, Initial residual = 0.000117195, Final residual = 3.44386e-07, No Iterations 1

Number of parcels in system.... | 150
Injected liquid mass........... | 0.066 mg
Liquid Mass in system.......... | 0.066 mg
SMD, Dmax...................... | 24.2906 mu, 79.3432 mu
Added gas mass................. | 3.27587 mg
Evaporation Continuity Error... | 3.27587 mg
ExecutionTime = 35.73 s  ClockTime = 46 s

Courant Number mean: 0.00250885 max: 0.27209
deltaT = 1e-05
 MassFlows:   inlet = -0.000452883  outlet = 0.000417981
Calculating averages

Time = 0.00016

Evolving Spray
Solving chemistry
diagonal:  Solving for rho, Initial residual = 0, Final residual = 0, No Iterations 0
DILUPBiCG:  Solving for Ux, Initial residual = 0.0263776, Final residual = 1.81473e-07, No Iterations 2
DILUPBiCG:  Solving for Uy, Initial residual = 0.00127418, Final residual = 3.48393e-08, No Iterations 2
DILUPBiCG:  Solving for Uz, Initial residual = 0.000613151, Final residual = 1.95963e-07, No Iterations 1
DILUPBiCG:  Solving for iC3H8O, Initial residual = 0, Final residual = 0, No Iterations 0
DILUPBiCG:  Solving for O2, Initial residual = 8.73316e-05, Final residual = 9.37224e-08, No Iterations 1
DILUPBiCG:  Solving for CO2, Initial residual = 0, Final residual = 0, No Iterations 0
DILUPBiCG:  Solving for H2O, Initial residual = 0, Final residual = 0, No Iterations 0
DILUPBiCG:  Solving for h, Initial residual = 0.0253552, Final residual = 9.8127e-07, No Iterations 2
DICPCG:  Solving for p, Initial residual = 0.0299348, Final residual = 7.28719e-10, No Iterations 27
DICPCG:  Solving for p, Initial residual = 7.52364e-10, Final residual = 7.52364e-10, No Iterations 0
diagonal:  Solving for rho, Initial residual = 0, Final residual = 0, No Iterations 0
time step continuity errors : sum local = 8.80046e-13, global = 2.52481e-14, cumulative = 5.29672e-14
DICPCG:  Solving for p, Initial residual = 0.000678302, Final residual = 7.71408e-10, No Iterations 19
DICPCG:  Solving for p, Initial residual = 7.7324e-10, Final residual = 7.7324e-10, No Iterations 0
diagonal:  Solving for rho, Initial residual = 0, Final residual = 0, No Iterations 0
time step continuity errors : sum local = 9.04404e-13, global = 1.01835e-13, cumulative = 1.54802e-13
DILUPBiCG:  Solving for epsilon, Initial residual = 0.000353069, Final residual = 5.26992e-07, No Iterations 1
DILUPBiCG:  Solving for k, Initial residual = 0.000116087, Final residual = 3.41795e-07, No Iterations 1

Number of parcels in system.... | 160
Injected liquid mass........... | 0.0704 mg
Liquid Mass in system.......... | 0.0704 mg
SMD, Dmax...................... | 24.4059 mu, 79.3432 mu
Added gas mass................. | 3.64333 mg
Evaporation Continuity Error... | 3.64333 mg
ExecutionTime = 37.83 s  ClockTime = 49 s

Courant Number mean: 0.00255548 max: 0.271782
deltaT = 1e-05
 MassFlows:   inlet = -0.000452942  outlet = 0.000417931
Calculating averages

Time = 0.00017

Evolving Spray
Solving chemistry
diagonal:  Solving for rho, Initial residual = 0, Final residual = 0, No Iterations 0
DILUPBiCG:  Solving for Ux, Initial residual = 0.0269921, Final residual = 1.92507e-07, No Iterations 2
DILUPBiCG:  Solving for Uy, Initial residual = 0.00152402, Final residual = 3.77061e-08, No Iterations 2
DILUPBiCG:  Solving for Uz, Initial residual = 0.00062887, Final residual = 1.92593e-07, No Iterations 1
DILUPBiCG:  Solving for iC3H8O, Initial residual = 0, Final residual = 0, No Iterations 0
DILUPBiCG:  Solving for O2, Initial residual = 8.49351e-05, Final residual = 1.1624e-07, No Iterations 1
DILUPBiCG:  Solving for CO2, Initial residual = 0, Final residual = 0, No Iterations 0
DILUPBiCG:  Solving for H2O, Initial residual = 0, Final residual = 0, No Iterations 0
DILUPBiCG:  Solving for h, Initial residual = 0.02775, Final residual = 8.37097e-07, No Iterations 2
DICPCG:  Solving for p, Initial residual = 0.0320475, Final residual = 6.5037e-10, No Iterations 27
DICPCG:  Solving for p, Initial residual = 6.66242e-10, Final residual = 6.66242e-10, No Iterations 0
diagonal:  Solving for rho, Initial residual = 0, Final residual = 0, No Iterations 0
time step continuity errors : sum local = 7.63866e-13, global = 3.19959e-14, cumulative = 1.86798e-13
DICPCG:  Solving for p, Initial residual = 0.00076905, Final residual = 8.31947e-10, No Iterations 19
DICPCG:  Solving for p, Initial residual = 8.33948e-10, Final residual = 8.33948e-10, No Iterations 0
diagonal:  Solving for rho, Initial residual = 0, Final residual = 0, No Iterations 0
time step continuity errors : sum local = 9.56001e-13, global = 1.19361e-13, cumulative = 3.06159e-13
DILUPBiCG:  Solving for epsilon, Initial residual = 0.000346583, Final residual = 5.28669e-07, No Iterations 1
DILUPBiCG:  Solving for k, Initial residual = 0.000115376, Final residual = 3.4296e-07, No Iterations 1

Number of parcels in system.... | 170
Injected liquid mass........... | 0.0748 mg
Liquid Mass in system.......... | 0.0748 mg
SMD, Dmax...................... | 24.262 mu, 79.3432 mu
Added gas mass................. | 4.02846 mg
Evaporation Continuity Error... | 4.02846 mg
ExecutionTime = 39.95 s  ClockTime = 51 s

Courant Number mean: 0.00259239 max: 0.271434
deltaT = 1e-05
 MassFlows:   inlet = -0.000452984  outlet = 0.000417892
Calculating averages

Time = 0.00018

Evolving Spray
Solving chemistry
diagonal:  Solving for rho, Initial residual = 0, Final residual = 0, No Iterations 0
DILUPBiCG:  Solving for Ux, Initial residual = 0.0289881, Final residual = 2.09851e-07, No Iterations 2
DILUPBiCG:  Solving for Uy, Initial residual = 0.00118039, Final residual = 2.75814e-08, No Iterations 2
DILUPBiCG:  Solving for Uz, Initial residual = 0.000646439, Final residual = 1.91076e-07, No Iterations 1
DILUPBiCG:  Solving for iC3H8O, Initial residual = 0, Final residual = 0, No Iterations 0
DILUPBiCG:  Solving for O2, Initial residual = 8.27399e-05, Final residual = 1.24483e-07, No Iterations 1
DILUPBiCG:  Solving for CO2, Initial residual = 0, Final residual = 0, No Iterations 0
DILUPBiCG:  Solving for H2O, Initial residual = 0, Final residual = 0, No Iterations 0
DILUPBiCG:  Solving for h, Initial residual = 0.0296344, Final residual = 6.16389e-07, No Iterations 2
DICPCG:  Solving for p, Initial residual = 0.033981, Final residual = 8.60098e-10, No Iterations 27
DICPCG:  Solving for p, Initial residual = 8.7233e-10, Final residual = 8.7233e-10, No Iterations 0
diagonal:  Solving for rho, Initial residual = 0, Final residual = 0, No Iterations 0
time step continuity errors : sum local = 9.90385e-13, global = 1.12002e-13, cumulative = 4.18161e-13
DICPCG:  Solving for p, Initial residual = 0.000859089, Final residual = 8.26914e-10, No Iterations 19
DICPCG:  Solving for p, Initial residual = 8.29264e-10, Final residual = 8.29264e-10, No Iterations 0
diagonal:  Solving for rho, Initial residual = 0, Final residual = 0, No Iterations 0
time step continuity errors : sum local = 9.40859e-13, global = 2.19833e-14, cumulative = 4.40144e-13
DILUPBiCG:  Solving for epsilon, Initial residual = 0.000340236, Final residual = 5.34579e-07, No Iterations 1
DILUPBiCG:  Solving for k, Initial residual = 0.000115388, Final residual = 3.47784e-07, No Iterations 1

Number of parcels in system.... | 180
Injected liquid mass........... | 0.0792 mg
Liquid Mass in system.......... | 0.0792 mg
SMD, Dmax...................... | 24.4772 mu, 79.3432 mu
Added gas mass................. | 4.43703 mg
Evaporation Continuity Error... | 4.43703 mg
ExecutionTime = 42.06 s  ClockTime = 54 s

Courant Number mean: 0.00262604 max: 0.271238
deltaT = 1e-05
 MassFlows:   inlet = -0.00045301  outlet = 0.000417862
Calculating averages

Time = 0.00019

Evolving Spray
Solving chemistry
diagonal:  Solving for rho, Initial residual = 0, Final residual = 0, No Iterations 0
DILUPBiCG:  Solving for Ux, Initial residual = 0.0291933, Final residual = 1.50509e-07, No Iterations 2
DILUPBiCG:  Solving for Uy, Initial residual = 0.00110196, Final residual = 3.21164e-08, No Iterations 2
DILUPBiCG:  Solving for Uz, Initial residual = 0.000666267, Final residual = 1.87893e-07, No Iterations 1
DILUPBiCG:  Solving for iC3H8O, Initial residual = 0, Final residual = 0, No Iterations 0
DILUPBiCG:  Solving for O2, Initial residual = 8.08607e-05, Final residual = 8.84154e-08, No Iterations 1
DILUPBiCG:  Solving for CO2, Initial residual = 0, Final residual = 0, No Iterations 0
DILUPBiCG:  Solving for H2O, Initial residual = 0, Final residual = 0, No Iterations 0
DILUPBiCG:  Solving for h, Initial residual = 0.0311812, Final residual = 3.23328e-07, No Iterations 2
DICPCG:  Solving for p, Initial residual = 0.0359929, Final residual = 8.06706e-10, No Iterations 27
DICPCG:  Solving for p, Initial residual = 8.11284e-10, Final residual = 8.11284e-10, No Iterations 0
diagonal:  Solving for rho, Initial residual = 0, Final residual = 0, No Iterations 0
time step continuity errors : sum local = 9.21779e-13, global = 7.94338e-14, cumulative = 5.19578e-13
DICPCG:  Solving for p, Initial residual = 0.000975491, Final residual = 8.98209e-10, No Iterations 19
DICPCG:  Solving for p, Initial residual = 9.00863e-10, Final residual = 9.00863e-10, No Iterations 0
diagonal:  Solving for rho, Initial residual = 0, Final residual = 0, No Iterations 0
time step continuity errors : sum local = 1.02239e-12, global = -5.34168e-14, cumulative = 4.66161e-13
DILUPBiCG:  Solving for epsilon, Initial residual = 0.000334205, Final residual = 5.43112e-07, No Iterations 1
DILUPBiCG:  Solving for k, Initial residual = 0.000115732, Final residual = 3.54515e-07, No Iterations 1

Number of parcels in system.... | 190
Injected liquid mass........... | 0.0836 mg
Liquid Mass in system.......... | 0.0836 mg
SMD, Dmax...................... | 24.8837 mu, 79.3432 mu
Added gas mass................. | 4.87251 mg
Evaporation Continuity Error... | 4.87251 mg
ExecutionTime = 44.18 s  ClockTime = 56 s

Courant Number mean: 0.00267172 max: 0.271538
deltaT = 1e-05
 MassFlows:   inlet = -0.000453024  outlet = 0.000417839
Calculating averages

Time = 0.0002

Evolving Spray
Solving chemistry
diagonal:  Solving for rho, Initial residual = 0, Final residual = 0, No Iterations 0
DILUPBiCG:  Solving for Ux, Initial residual = 0.0296611, Final residual = 1.42353e-07, No Iterations 2
DILUPBiCG:  Solving for Uy, Initial residual = 0.000946364, Final residual = 2.91187e-08, No Iterations 2
DILUPBiCG:  Solving for Uz, Initial residual = 0.00068685, Final residual = 1.83815e-07, No Iterations 1
DILUPBiCG:  Solving for iC3H8O, Initial residual = 0, Final residual = 0, No Iterations 0
DILUPBiCG:  Solving for O2, Initial residual = 7.90917e-05, Final residual = 8.25781e-08, No Iterations 1
DILUPBiCG:  Solving for CO2, Initial residual = 0, Final residual = 0, No Iterations 0
DILUPBiCG:  Solving for H2O, Initial residual = 0, Final residual = 0, No Iterations 0
DILUPBiCG:  Solving for h, Initial residual = 0.0329727, Final residual = 9.22887e-08, No Iterations 2
DICPCG:  Solving for p, Initial residual = 0.0371418, Final residual = 7.56062e-10, No Iterations 27
DICPCG:  Solving for p, Initial residual = 7.58933e-10, Final residual = 7.58933e-10, No Iterations 0
diagonal:  Solving for rho, Initial residual = 0, Final residual = 0, No Iterations 0
time step continuity errors : sum local = 8.64709e-13, global = 1.07655e-13, cumulative = 5.73816e-13
DICPCG:  Solving for p, Initial residual = 0.00103181, Final residual = 8.61484e-10, No Iterations 19
DICPCG:  Solving for p, Initial residual = 8.63777e-10, Final residual = 8.63777e-10, No Iterations 0
diagonal:  Solving for rho, Initial residual = 0, Final residual = 0, No Iterations 0
time step continuity errors : sum local = 9.83544e-13, global = -4.98264e-14, cumulative = 5.2399e-13
DILUPBiCG:  Solving for epsilon, Initial residual = 0.000328362, Final residual = 5.445e-07, No Iterations 1
DILUPBiCG:  Solving for k, Initial residual = 0.000115721, Final residual = 3.57741e-07, No Iterations 1

Number of parcels in system.... | 200
Injected liquid mass........... | 0.088 mg
Liquid Mass in system.......... | 0.088 mg
SMD, Dmax...................... | 24.882 mu, 79.3432 mu
Added gas mass................. | 5.32996 mg
Evaporation Continuity Error... | 5.32996 mg
ExecutionTime = 47.37 s  ClockTime = 60 s

Courant Number mean: 0.00272281 max: 0.272576
deltaT = 9.09091e-06
 MassFlows:   inlet = -0.000453026  outlet = 0.00041782
Calculating averages

Time = 0.000209091

Evolving Spray
Solving chemistry
diagonal:  Solving for rho, Initial residual = 0, Final residual = 0, No Iterations 0
DILUPBiCG:  Solving for Ux, Initial residual = 0.027445, Final residual = 1.08442e-07, No Iterations 2
DILUPBiCG:  Solving for Uy, Initial residual = 0.000760105, Final residual = 1.89462e-08, No Iterations 2
DILUPBiCG:  Solving for Uz, Initial residual = 0.000643521, Final residual = 1.44383e-07, No Iterations 1
DILUPBiCG:  Solving for iC3H8O, Initial residual = 0, Final residual = 0, No Iterations 0
DILUPBiCG:  Solving for O2, Initial residual = 7.04013e-05, Final residual = 6.21531e-08, No Iterations 1
DILUPBiCG:  Solving for CO2, Initial residual = 0, Final residual = 0, No Iterations 0
DILUPBiCG:  Solving for H2O, Initial residual = 0, Final residual = 0, No Iterations 0
DILUPBiCG:  Solving for h, Initial residual = 0.0308758, Final residual = 5.55471e-08, No Iterations 2
DICPCG:  Solving for p, Initial residual = 0.0354694, Final residual = 9.40927e-10, No Iterations 25
DICPCG:  Solving for p, Initial residual = 9.43566e-10, Final residual = 9.43566e-10, No Iterations 0
diagonal:  Solving for rho, Initial residual = 0, Final residual = 0, No Iterations 0
time step continuity errors : sum local = 1.07696e-12, global = 6.1874e-14, cumulative = 5.85864e-13
DICPCG:  Solving for p, Initial residual = 0.000916431, Final residual = 9.99012e-10, No Iterations 17
DICPCG:  Solving for p, Initial residual = 1.00031e-09, Final residual = 3.58144e-10, No Iterations 1
diagonal:  Solving for rho, Initial residual = 0, Final residual = 0, No Iterations 0
time step continuity errors : sum local = 4.09687e-13, global = -8.56183e-15, cumulative = 5.77302e-13
DILUPBiCG:  Solving for epsilon, Initial residual = 0.000293317, Final residual = 4.3806e-07, No Iterations 1
DILUPBiCG:  Solving for k, Initial residual = 0.000105025, Final residual = 2.88839e-07, No Iterations 1

Number of parcels in system.... | 210
Injected liquid mass........... | 0.092 mg
Liquid Mass in system.......... | 0.092 mg
SMD, Dmax...................... | 25.0142 mu, 79.3432 mu
Added gas mass................. | 5.75581 mg
Evaporation Continuity Error... | 5.75581 mg
ExecutionTime = 50.07 s  ClockTime = 63 s

Courant Number mean: 0.00250289 max: 0.249158
deltaT = 9.09091e-06
 MassFlows:   inlet = -0.000452998  outlet = 0.000417804
Calculating averages

Time = 0.000218182

Evolving Spray
Solving chemistry
diagonal:  Solving for rho, Initial residual = 0, Final residual = 0, No Iterations 0
DILUPBiCG:  Solving for Ux, Initial residual = 0.0276853, Final residual = 5.90019e-08, No Iterations 2
DILUPBiCG:  Solving for Uy, Initial residual = 0.000689404, Final residual = 1.146e-08, No Iterations 2
DILUPBiCG:  Solving for Uz, Initial residual = 0.000663892, Final residual = 1.42075e-07, No Iterations 1
DILUPBiCG:  Solving for iC3H8O, Initial residual = 0, Final residual = 0, No Iterations 0
DILUPBiCG:  Solving for O2, Initial residual = 6.91218e-05, Final residual = 5.76416e-08, No Iterations 1
DILUPBiCG:  Solving for CO2, Initial residual = 0, Final residual = 0, No Iterations 0
DILUPBiCG:  Solving for H2O, Initial residual = 0, Final residual = 0, No Iterations 0
DILUPBiCG:  Solving for h, Initial residual = 0.032622, Final residual = 5.72536e-08, No Iterations 2
DICPCG:  Solving for p, Initial residual = 0.0369122, Final residual = 9.27625e-10, No Iterations 25
DICPCG:  Solving for p, Initial residual = 9.28536e-10, Final residual = 9.28536e-10, No Iterations 0
diagonal:  Solving for rho, Initial residual = 0, Final residual = 0, No Iterations 0
time step continuity errors : sum local = 1.06649e-12, global = 6.96151e-14, cumulative = 6.46917e-13
DICPCG:  Solving for p, Initial residual = 0.000922211, Final residual = 8.2701e-10, No Iterations 17
DICPCG:  Solving for p, Initial residual = 8.28236e-10, Final residual = 8.28236e-10, No Iterations 0
diagonal:  Solving for rho, Initial residual = 0, Final residual = 0, No Iterations 0
time step continuity errors : sum local = 9.51468e-13, global = -3.44501e-14, cumulative = 6.12467e-13
DILUPBiCG:  Solving for epsilon, Initial residual = 0.000288372, Final residual = 4.1966e-07, No Iterations 1
DILUPBiCG:  Solving for k, Initial residual = 0.000104287, Final residual = 2.78013e-07, No Iterations 1

Number of parcels in system.... | 220
Injected liquid mass........... | 0.096 mg
Liquid Mass in system.......... | 0.096 mg
SMD, Dmax...................... | 25.2205 mu, 79.3432 mu
Added gas mass................. | 6.18716 mg
Evaporation Continuity Error... | 6.18716 mg
ExecutionTime = 52.17 s  ClockTime = 66 s

Courant Number mean: 0.00249043 max: 0.250679
deltaT = 9.09091e-06
 MassFlows:   inlet = -0.000452987  outlet = 0.000417788
Calculating averages

Time = 0.000227273

Evolving Spray
Solving chemistry
diagonal:  Solving for rho, Initial residual = 0, Final residual = 0, No Iterations 0
DILUPBiCG:  Solving for Ux, Initial residual = 0.0286218, Final residual = 6.48006e-08, No Iterations 2
DILUPBiCG:  Solving for Uy, Initial residual = 0.000654178, Final residual = 1.19351e-08, No Iterations 2
DILUPBiCG:  Solving for Uz, Initial residual = 0.000683825, Final residual = 1.44118e-07, No Iterations 1
DILUPBiCG:  Solving for iC3H8O, Initial residual = 0, Final residual = 0, No Iterations 0
DILUPBiCG:  Solving for O2, Initial residual = 6.79269e-05, Final residual = 5.22015e-08, No Iterations 1
DILUPBiCG:  Solving for CO2, Initial residual = 0, Final residual = 0, No Iterations 0
DILUPBiCG:  Solving for H2O, Initial residual = 0, Final residual = 0, No Iterations 0
DILUPBiCG:  Solving for h, Initial residual = 0.0338771, Final residual = 5.56659e-08, No Iterations 2
DICPCG:  Solving for p, Initial residual = 0.0379238, Final residual = 6.01949e-10, No Iterations 26
DICPCG:  Solving for p, Initial residual = 6.00535e-10, Final residual = 6.00535e-10, No Iterations 0
diagonal:  Solving for rho, Initial residual = 0, Final residual = 0, No Iterations 0
time step continuity errors : sum local = 6.98364e-13, global = 8.08781e-14, cumulative = 6.93345e-13
DICPCG:  Solving for p, Initial residual = 0.000990208, Final residual = 7.43505e-10, No Iterations 17
DICPCG:  Solving for p, Initial residual = 7.45181e-10, Final residual = 7.45181e-10, No Iterations 0
diagonal:  Solving for rho, Initial residual = 0, Final residual = 0, No Iterations 0
time step continuity errors : sum local = 8.6621e-13, global = -5.18531e-14, cumulative = 6.41492e-13
DILUPBiCG:  Solving for epsilon, Initial residual = 0.000283229, Final residual = 4.15918e-07, No Iterations 1
DILUPBiCG:  Solving for k, Initial residual = 0.00010337, Final residual = 2.73716e-07, No Iterations 1

Number of parcels in system.... | 230
Injected liquid mass........... | 0.1 mg
Liquid Mass in system.......... | 0.1 mg
SMD, Dmax...................... | 25.4202 mu, 79.3432 mu
Added gas mass................. | 6.63009 mg
Evaporation Continuity Error... | 6.63009 mg
ExecutionTime = 54.34 s  ClockTime = 68 s

Courant Number mean: 0.00246856 max: 0.25196
deltaT = 9.09091e-06
 MassFlows:   inlet = -0.000452971  outlet = 0.000417772
Calculating averages

Time = 0.000236364

Evolving Spray
Solving chemistry
diagonal:  Solving for rho, Initial residual = 0, Final residual = 0, No Iterations 0
DILUPBiCG:  Solving for Ux, Initial residual = 0.0283173, Final residual = 9.63771e-08, No Iterations 2
DILUPBiCG:  Solving for Uy, Initial residual = 0.000475283, Final residual = 1.16799e-08, No Iterations 2
DILUPBiCG:  Solving for Uz, Initial residual = 0.000713722, Final residual = 1.49368e-07, No Iterations 1
DILUPBiCG:  Solving for iC3H8O, Initial residual = 0, Final residual = 0, No Iterations 0
DILUPBiCG:  Solving for O2, Initial residual = 6.67731e-05, Final residual = 4.33069e-08, No Iterations 1
DILUPBiCG:  Solving for CO2, Initial residual = 0, Final residual = 0, No Iterations 0
DILUPBiCG:  Solving for H2O, Initial residual = 0, Final residual = 0, No Iterations 0
DILUPBiCG:  Solving for h, Initial residual = 0.0347958, Final residual = 9.72367e-08, No Iterations 2
DICPCG:  Solving for p, Initial residual = 0.0391623, Final residual = 6.67451e-10, No Iterations 26
DICPCG:  Solving for p, Initial residual = 6.62514e-10, Final residual = 6.62514e-10, No Iterations 0
diagonal:  Solving for rho, Initial residual = 0, Final residual = 0, No Iterations 0
time step continuity errors : sum local = 7.84272e-13, global = 6.19763e-14, cumulative = 7.03468e-13
DICPCG:  Solving for p, Initial residual = 0.001048, Final residual = 8.29266e-10, No Iterations 17
DICPCG:  Solving for p, Initial residual = 8.31148e-10, Final residual = 8.31148e-10, No Iterations 0
diagonal:  Solving for rho, Initial residual = 0, Final residual = 0, No Iterations 0
time step continuity errors : sum local = 9.83159e-13, global = -3.21341e-14, cumulative = 6.71334e-13
DILUPBiCG:  Solving for epsilon, Initial residual = 0.000277853, Final residual = 4.09382e-07, No Iterations 1
DILUPBiCG:  Solving for k, Initial residual = 0.000102491, Final residual = 2.70991e-07, No Iterations 1

Number of parcels in system.... | 240
Injected liquid mass........... | 0.104 mg
Liquid Mass in system.......... | 0.104 mg
SMD, Dmax...................... | 25.4892 mu, 79.3432 mu
Added gas mass................. | 7.09097 mg
Evaporation Continuity Error... | 7.09097 mg
ExecutionTime = 56.47 s  ClockTime = 70 s

Courant Number mean: 0.00246547 max: 0.25274
deltaT = 9.09091e-06
 MassFlows:   inlet = -0.000452953  outlet = 0.000417754
Calculating averages

Time = 0.000245455

Evolving Spray
Solving chemistry
diagonal:  Solving for rho, Initial residual = 0, Final residual = 0, No Iterations 0
DILUPBiCG:  Solving for Ux, Initial residual = 0.0305301, Final residual = 9.09562e-08, No Iterations 2
DILUPBiCG:  Solving for Uy, Initial residual = 0.000667946, Final residual = 1.53474e-08, No Iterations 2
DILUPBiCG:  Solving for Uz, Initial residual = 0.000741191, Final residual = 1.55157e-07, No Iterations 1
DILUPBiCG:  Solving for iC3H8O, Initial residual = 0, Final residual = 0, No Iterations 0
DILUPBiCG:  Solving for O2, Initial residual = 6.56283e-05, Final residual = 3.28873e-08, No Iterations 1
DILUPBiCG:  Solving for CO2, Initial residual = 0, Final residual = 0, No Iterations 0
DILUPBiCG:  Solving for H2O, Initial residual = 0, Final residual = 0, No Iterations 0
DILUPBiCG:  Solving for h, Initial residual = 0.0360076, Final residual = 1.74233e-07, No Iterations 2
DICPCG:  Solving for p, Initial residual = 0.0390647, Final residual = 5.5362e-10, No Iterations 26
DICPCG:  Solving for p, Initial residual = 5.4842e-10, Final residual = 5.4842e-10, No Iterations 0
diagonal:  Solving for rho, Initial residual = 0, Final residual = 0, No Iterations 0
time step continuity errors : sum local = 6.62421e-13, global = 5.62461e-14, cumulative = 7.2758e-13
DICPCG:  Solving for p, Initial residual = 0.0010218, Final residual = 7.62466e-10, No Iterations 17
DICPCG:  Solving for p, Initial residual = 7.64373e-10, Final residual = 7.64373e-10, No Iterations 0
diagonal:  Solving for rho, Initial residual = 0, Final residual = 0, No Iterations 0
time step continuity errors : sum local = 9.22517e-13, global = -1.37475e-15, cumulative = 7.26205e-13
DILUPBiCG:  Solving for epsilon, Initial residual = 0.000272357, Final residual = 4.04189e-07, No Iterations 1
DILUPBiCG:  Solving for k, Initial residual = 0.000101138, Final residual = 2.68089e-07, No Iterations 1

Number of parcels in system.... | 250
Injected liquid mass........... | 0.108 mg
Liquid Mass in system.......... | 0.108 mg
SMD, Dmax...................... | 25.3269 mu, 79.3432 mu
Added gas mass................. | 7.56493 mg
Evaporation Continuity Error... | 7.56493 mg
ExecutionTime = 58.63 s  ClockTime = 73 s

Courant Number mean: 0.00248056 max: 0.253003
deltaT = 9.09091e-06
 MassFlows:   inlet = -0.000452933  outlet = 0.000417732
Calculating averages

Time = 0.000254545

Evolving Spray
Solving chemistry
diagonal:  Solving for rho, Initial residual = 0, Final residual = 0, No Iterations 0
DILUPBiCG:  Solving for Ux, Initial residual = 0.0350204, Final residual = 4.22844e-08, No Iterations 2
DILUPBiCG:  Solving for Uy, Initial residual = 0.00041315, Final residual = 1.0786e-08, No Iterations 2
DILUPBiCG:  Solving for Uz, Initial residual = 0.000763589, Final residual = 1.59302e-07, No Iterations 1
DILUPBiCG:  Solving for iC3H8O, Initial residual = 0, Final residual = 0, No Iterations 0
DILUPBiCG:  Solving for O2, Initial residual = 6.44859e-05, Final residual = 5.53963e-08, No Iterations 1
DILUPBiCG:  Solving for CO2, Initial residual = 0, Final residual = 0, No Iterations 0
DILUPBiCG:  Solving for H2O, Initial residual = 0, Final residual = 0, No Iterations 0
DILUPBiCG:  Solving for h, Initial residual = 0.035682, Final residual = 2.23212e-07, No Iterations 2
DICPCG:  Solving for p, Initial residual = 0.0394719, Final residual = 8.34791e-10, No Iterations 25
DICPCG:  Solving for p, Initial residual = 8.27527e-10, Final residual = 8.27527e-10, No Iterations 0
diagonal:  Solving for rho, Initial residual = 0, Final residual = 0, No Iterations 0
time step continuity errors : sum local = 1.01824e-12, global = 1.13712e-14, cumulative = 7.37577e-13
DICPCG:  Solving for p, Initial residual = 0.00112311, Final residual = 8.64376e-10, No Iterations 17
DICPCG:  Solving for p, Initial residual = 8.66044e-10, Final residual = 8.66044e-10, No Iterations 0
diagonal:  Solving for rho, Initial residual = 0, Final residual = 0, No Iterations 0
time step continuity errors : sum local = 1.06503e-12, global = 3.54537e-14, cumulative = 7.7303e-13
DILUPBiCG:  Solving for epsilon, Initial residual = 0.000267426, Final residual = 4.00469e-07, No Iterations 1
DILUPBiCG:  Solving for k, Initial residual = 0.000100681, Final residual = 2.67931e-07, No Iterations 1

Number of parcels in system.... | 260
Injected liquid mass........... | 0.112 mg
Liquid Mass in system.......... | 0.112 mg
SMD, Dmax...................... | 25.2257 mu, 79.3432 mu
Added gas mass................. | 8.03881 mg
Evaporation Continuity Error... | 8.03881 mg
ExecutionTime = 60.67 s  ClockTime = 76 s

Courant Number mean: 0.00250302 max: 0.252944
deltaT = 9.09091e-06
 MassFlows:   inlet = -0.000452913  outlet = 0.000417708
Calculating averages

Time = 0.000263636

Evolving Spray
Solving chemistry
diagonal:  Solving for rho, Initial residual = 0, Final residual = 0, No Iterations 0
DILUPBiCG:  Solving for Ux, Initial residual = 0.0378112, Final residual = 3.8917e-08, No Iterations 2
DILUPBiCG:  Solving for Uy, Initial residual = 0.000427235, Final residual = 7.88964e-09, No Iterations 2
DILUPBiCG:  Solving for Uz, Initial residual = 0.000781424, Final residual = 1.60362e-07, No Iterations 1
DILUPBiCG:  Solving for iC3H8O, Initial residual = 0, Final residual = 0, No Iterations 0
DILUPBiCG:  Solving for O2, Initial residual = 6.33591e-05, Final residual = 1.16854e-07, No Iterations 1
DILUPBiCG:  Solving for CO2, Initial residual = 0, Final residual = 0, No Iterations 0
DILUPBiCG:  Solving for H2O, Initial residual = 0, Final residual = 0, No Iterations 0
DILUPBiCG:  Solving for h, Initial residual = 0.0360159, Final residual = 2.60516e-07, No Iterations 2
DICPCG:  Solving for p, Initial residual = 0.0399781, Final residual = 9.80442e-10, No Iterations 25
DICPCG:  Solving for p, Initial residual = 9.7486e-10, Final residual = 9.7486e-10, No Iterations 0
diagonal:  Solving for rho, Initial residual = 0, Final residual = 0, No Iterations 0
time step continuity errors : sum local = 1.21908e-12, global = -6.44656e-14, cumulative = 7.08565e-13
DICPCG:  Solving for p, Initial residual = 0.00119217, Final residual = 7.35885e-10, No Iterations 17
DICPCG:  Solving for p, Initial residual = 7.37438e-10, Final residual = 7.37438e-10, No Iterations 0
diagonal:  Solving for rho, Initial residual = 0, Final residual = 0, No Iterations 0
time step continuity errors : sum local = 9.21699e-13, global = 4.29587e-14, cumulative = 7.51524e-13
DILUPBiCG:  Solving for epsilon, Initial residual = 0.00026313, Final residual = 3.97957e-07, No Iterations 1
DILUPBiCG:  Solving for k, Initial residual = 0.000100184, Final residual = 2.67292e-07, No Iterations 1

Number of parcels in system.... | 270
Injected liquid mass........... | 0.116 mg
Liquid Mass in system.......... | 0.116 mg
SMD, Dmax...................... | 25.2313 mu, 79.3432 mu
Added gas mass................. | 8.50741 mg
Evaporation Continuity Error... | 8.50741 mg
ExecutionTime = 62.37 s  ClockTime = 79 s

Courant Number mean: 0.00247345 max: 0.252817
deltaT = 9.09091e-06
 MassFlows:   inlet = -0.000452893  outlet = 0.000417679
Calculating averages

Time = 0.000272727

Evolving Spray
Solving chemistry
diagonal:  Solving for rho, Initial residual = 0, Final residual = 0, No Iterations 0
DILUPBiCG:  Solving for Ux, Initial residual = 0.0425341, Final residual = 4.72326e-08, No Iterations 2
DILUPBiCG:  Solving for Uy, Initial residual = 0.000505673, Final residual = 1.0778e-08, No Iterations 2
DILUPBiCG:  Solving for Uz, Initial residual = 0.000797587, Final residual = 1.5983e-07, No Iterations 1
DILUPBiCG:  Solving for iC3H8O, Initial residual = 0, Final residual = 0, No Iterations 0
DILUPBiCG:  Solving for O2, Initial residual = 6.23618e-05, Final residual = 6.0239e-08, No Iterations 1
DILUPBiCG:  Solving for CO2, Initial residual = 0, Final residual = 0, No Iterations 0
DILUPBiCG:  Solving for H2O, Initial residual = 0, Final residual = 0, No Iterations 0
DILUPBiCG:  Solving for h, Initial residual = 0.0365801, Final residual = 1.63449e-07, No Iterations 2
DICPCG:  Solving for p, Initial residual = 0.0401665, Final residual = 5.80624e-10, No Iterations 26
DICPCG:  Solving for p, Initial residual = 5.79519e-10, Final residual = 5.79519e-10, No Iterations 0
diagonal:  Solving for rho, Initial residual = 0, Final residual = 0, No Iterations 0
time step continuity errors : sum local = 7.34369e-13, global = 2.23912e-14, cumulative = 7.73915e-13
DICPCG:  Solving for p, Initial residual = 0.0012973, Final residual = 7.35797e-10, No Iterations 17
DICPCG:  Solving for p, Initial residual = 7.37369e-10, Final residual = 7.37369e-10, No Iterations 0
diagonal:  Solving for rho, Initial residual = 0, Final residual = 0, No Iterations 0
time step continuity errors : sum local = 9.33978e-13, global = 6.704e-14, cumulative = 8.40955e-13
DILUPBiCG:  Solving for epsilon, Initial residual = 0.000259512, Final residual = 3.94684e-07, No Iterations 1
DILUPBiCG:  Solving for k, Initial residual = 0.000100038, Final residual = 2.66753e-07, No Iterations 1

Number of parcels in system.... | 280
Injected liquid mass........... | 0.12 mg
Liquid Mass in system.......... | 0.12 mg
SMD, Dmax...................... | 25.1037 mu, 79.3432 mu
Added gas mass................. | 8.97631 mg
Evaporation Continuity Error... | 8.97631 mg
ExecutionTime = 64.35 s  ClockTime = 81 s

Courant Number mean: 0.00239363 max: 0.252839
deltaT = 9.09091e-06
 MassFlows:   inlet = -0.000452873  outlet = 0.000417647
Calculating averages

Time = 0.000281818

Evolving Spray
Solving chemistry
diagonal:  Solving for rho, Initial residual = 0, Final residual = 0, No Iterations 0
DILUPBiCG:  Solving for Ux, Initial residual = 0.0456422, Final residual = 4.84895e-08, No Iterations 2
DILUPBiCG:  Solving for Uy, Initial residual = 0.000462771, Final residual = 1.05989e-08, No Iterations 2
DILUPBiCG:  Solving for Uz, Initial residual = 0.000815954, Final residual = 1.58751e-07, No Iterations 1
DILUPBiCG:  Solving for iC3H8O, Initial residual = 0, Final residual = 0, No Iterations 0
DILUPBiCG:  Solving for O2, Initial residual = 6.13999e-05, Final residual = 4.78669e-08, No Iterations 1
DILUPBiCG:  Solving for CO2, Initial residual = 0, Final residual = 0, No Iterations 0
DILUPBiCG:  Solving for H2O, Initial residual = 0, Final residual = 0, No Iterations 0
DILUPBiCG:  Solving for h, Initial residual = 0.0363907, Final residual = 2.33284e-07, No Iterations 2
DICPCG:  Solving for p, Initial residual = 0.0420191, Final residual = 8.55171e-10, No Iterations 25
DICPCG:  Solving for p, Initial residual = 8.51034e-10, Final residual = 8.51034e-10, No Iterations 0
diagonal:  Solving for rho, Initial residual = 0, Final residual = 0, No Iterations 0
time step continuity errors : sum local = 1.09606e-12, global = -6.83581e-15, cumulative = 8.34119e-13
DICPCG:  Solving for p, Initial residual = 0.00141761, Final residual = 8.96798e-10, No Iterations 17
DICPCG:  Solving for p, Initial residual = 8.988e-10, Final residual = 8.988e-10, No Iterations 0
diagonal:  Solving for rho, Initial residual = 0, Final residual = 0, No Iterations 0
time step continuity errors : sum local = 1.15621e-12, global = 4.75667e-14, cumulative = 8.81686e-13
DILUPBiCG:  Solving for epsilon, Initial residual = 0.000256529, Final residual = 3.90771e-07, No Iterations 1
DILUPBiCG:  Solving for k, Initial residual = 0.0001008, Final residual = 2.65889e-07, No Iterations 1

Number of parcels in system.... | 290
Injected liquid mass........... | 0.124 mg
Liquid Mass in system.......... | 0.124 mg
SMD, Dmax...................... | 24.9167 mu, 79.3432 mu
Added gas mass................. | 9.44717 mg
Evaporation Continuity Error... | 9.44717 mg
ExecutionTime = 66.42 s  ClockTime = 84 s

Courant Number mean: 0.00237043 max: 0.253052
deltaT = 9.09091e-06
 MassFlows:   inlet = -0.000452855  outlet = 0.000417611
Calculating averages

Time = 0.000290909

Evolving Spray
Solving chemistry
diagonal:  Solving for rho, Initial residual = 0, Final residual = 0, No Iterations 0
DILUPBiCG:  Solving for Ux, Initial residual = 0.0471927, Final residual = 2.78913e-08, No Iterations 2
DILUPBiCG:  Solving for Uy, Initial residual = 0.000328651, Final residual = 9.15349e-07, No Iterations 1
DILUPBiCG:  Solving for Uz, Initial residual = 0.000838156, Final residual = 1.57932e-07, No Iterations 1
DILUPBiCG:  Solving for iC3H8O, Initial residual = 0, Final residual = 0, No Iterations 0
DILUPBiCG:  Solving for O2, Initial residual = 6.05826e-05, Final residual = 3.62326e-08, No Iterations 1
DILUPBiCG:  Solving for CO2, Initial residual = 0, Final residual = 0, No Iterations 0
DILUPBiCG:  Solving for H2O, Initial residual = 0, Final residual = 0, No Iterations 0
DILUPBiCG:  Solving for h, Initial residual = 0.0377315, Final residual = 1.03758e-09, No Iterations 3
DICPCG:  Solving for p, Initial residual = 0.0435392, Final residual = 9.42616e-10, No Iterations 25
DICPCG:  Solving for p, Initial residual = 9.33929e-10, Final residual = 9.33929e-10, No Iterations 0
diagonal:  Solving for rho, Initial residual = 0, Final residual = 0, No Iterations 0
time step continuity errors : sum local = 1.22804e-12, global = 5.81963e-14, cumulative = 9.39882e-13
DICPCG:  Solving for p, Initial residual = 0.0015709, Final residual = 9.16974e-10, No Iterations 17
DICPCG:  Solving for p, Initial residual = 9.19171e-10, Final residual = 9.19171e-10, No Iterations 0
diagonal:  Solving for rho, Initial residual = 0, Final residual = 0, No Iterations 0
time step continuity errors : sum local = 1.20687e-12, global = -1.27967e-15, cumulative = 9.38602e-13
DILUPBiCG:  Solving for epsilon, Initial residual = 0.000253532, Final residual = 3.86695e-07, No Iterations 1
DILUPBiCG:  Solving for k, Initial residual = 0.000101064, Final residual = 2.65378e-07, No Iterations 1

Number of parcels in system.... | 300
Injected liquid mass........... | 0.128 mg
Liquid Mass in system.......... | 0.128 mg
SMD, Dmax...................... | 24.8947 mu, 79.3432 mu
Added gas mass................. | 9.90926 mg
Evaporation Continuity Error... | 9.90926 mg
ExecutionTime = 68.48 s  ClockTime = 86 s

Courant Number mean: 0.00234674 max: 0.25332
deltaT = 9.09091e-06
 MassFlows:   inlet = -0.000452839  outlet = 0.000417572
Calculating averages

Time = 0.0003

Evolving Spray
Solving chemistry
diagonal:  Solving for rho, Initial residual = 0, Final residual = 0, No Iterations 0
DILUPBiCG:  Solving for Ux, Initial residual = 0.0524305, Final residual = 1.05803e-08, No Iterations 2
DILUPBiCG:  Solving for Uy, Initial residual = 0.000469147, Final residual = 1.15547e-08, No Iterations 2
DILUPBiCG:  Solving for Uz, Initial residual = 0.000855331, Final residual = 1.59389e-07, No Iterations 1
DILUPBiCG:  Solving for iC3H8O, Initial residual = 0, Final residual = 0, No Iterations 0
DILUPBiCG:  Solving for O2, Initial residual = 5.98187e-05, Final residual = 3.50627e-07, No Iterations 1
DILUPBiCG:  Solving for CO2, Initial residual = 0, Final residual = 0, No Iterations 0
DILUPBiCG:  Solving for H2O, Initial residual = 0, Final residual = 0, No Iterations 0
DILUPBiCG:  Solving for h, Initial residual = 0.0390055, Final residual = 1.0914e-09, No Iterations 3
DICPCG:  Solving for p, Initial residual = 0.0452198, Final residual = 5.17585e-10, No Iterations 25
DICPCG:  Solving for p, Initial residual = 5.13753e-10, Final residual = 5.13753e-10, No Iterations 0
diagonal:  Solving for rho, Initial residual = 0, Final residual = 0, No Iterations 0
time step continuity errors : sum local = 6.88678e-13, global = -5.23657e-14, cumulative = 8.86236e-13
DICPCG:  Solving for p, Initial residual = 0.00174843, Final residual = 8.23343e-10, No Iterations 17
DICPCG:  Solving for p, Initial residual = 8.25443e-10, Final residual = 8.25443e-10, No Iterations 0
diagonal:  Solving for rho, Initial residual = 0, Final residual = 0, No Iterations 0
time step continuity errors : sum local = 1.10481e-12, global = -4.96524e-15, cumulative = 8.81271e-13
DILUPBiCG:  Solving for epsilon, Initial residual = 0.000250438, Final residual = 3.82397e-07, No Iterations 1
DILUPBiCG:  Solving for k, Initial residual = 0.000101683, Final residual = 2.64916e-07, No Iterations 1

Number of parcels in system.... | 310
Injected liquid mass........... | 0.132 mg
Liquid Mass in system.......... | 0.132 mg
SMD, Dmax...................... | 24.7796 mu, 79.3432 mu
Added gas mass................. | 10.349 mg
Evaporation Continuity Error... | 10.349 mg
ExecutionTime = 71.4 s  ClockTime = 90 s

Courant Number mean: 0.00237347 max: 0.25351
deltaT = 1e-05
 MassFlows:   inlet = -0.000452825  outlet = 0.000417531
Calculating averages

Time = 0.00031

Evolving Spray
Solving chemistry
diagonal:  Solving for rho, Initial residual = 0, Final residual = 0, No Iterations 0
DILUPBiCG:  Solving for Ux, Initial residual = 0.0604159, Final residual = 2.69654e-08, No Iterations 2
DILUPBiCG:  Solving for Uy, Initial residual = 0.000606534, Final residual = 1.17955e-08, No Iterations 2
DILUPBiCG:  Solving for Uz, Initial residual = 0.000954738, Final residual = 2.0404e-07, No Iterations 1
DILUPBiCG:  Solving for iC3H8O, Initial residual = 0, Final residual = 0, No Iterations 0
DILUPBiCG:  Solving for O2, Initial residual = 6.48329e-05, Final residual = 1.09621e-07, No Iterations 1
DILUPBiCG:  Solving for CO2, Initial residual = 0, Final residual = 0, No Iterations 0
DILUPBiCG:  Solving for H2O, Initial residual = 0, Final residual = 0, No Iterations 0
DILUPBiCG:  Solving for h, Initial residual = 0.0434388, Final residual = 1.62631e-09, No Iterations 3
DICPCG:  Solving for p, Initial residual = 0.0520529, Final residual = 8.38809e-10, No Iterations 27
[...]
Solving chemistry
diagonal:  Solving for rho, Initial residual = 0, Final residual = 0, No Iterations 0
DILUPBiCG:  Solving for Ux, Initial residual = 0.0987446, Final residual = 2.99153e-08, No Iterations 2
DILUPBiCG:  Solving for Uy, Initial residual = 0.000344173, Final residual = 2.64367e-07, No Iterations 1
DILUPBiCG:  Solving for Uz, Initial residual = 0.000678981, Final residual = 7.86456e-08, No Iterations 1
DILUPBiCG:  Solving for iC3H8O, Initial residual = 0, Final residual = 0, No Iterations 0
DILUPBiCG:  Solving for O2, Initial residual = 2.14082e-05, Final residual = 1.34503e-08, No Iterations 1
DILUPBiCG:  Solving for CO2, Initial residual = 0, Final residual = 0, No Iterations 0
DILUPBiCG:  Solving for H2O, Initial residual = 0, Final residual = 0, No Iterations 0
DILUPBiCG:  Solving for h, Initial residual = 0.0643218, Final residual = 3.52354e-08, No Iterations 2
DICPCG:  Solving for p, Initial residual = 0.0706418, Final residual = 4.87373e-10, No Iterations 13
DICPCG:  Solving for p, Initial residual = 4.67068e-10, Final residual = 4.67068e-10, No Iterations 0
diagonal:  Solving for rho, Initial residual = 0, Final residual = 0, No Iterations 0
time step continuity errors : sum local = 1.14508e-12, global = 1.23626e-13, cumulative = 9.12515e-14
DICPCG:  Solving for p, Initial residual = 0.0024922, Final residual = 7.08492e-10, No Iterations 7
DICPCG:  Solving for p, Initial residual = 7.10064e-10, Final residual = 7.10064e-10, No Iterations 0
diagonal:  Solving for rho, Initial residual = 0, Final residual = 0, No Iterations 0
time step continuity errors : sum local = 1.73546e-12, global = 1.17467e-13, cumulative = 2.08719e-13
DILUPBiCG:  Solving for epsilon, Initial residual = 0.000729122, Final residual = 4.39351e-07, No Iterations 1
DILUPBiCG:  Solving for k, Initial residual = 0.00201256, Final residual = 9.2223e-10, No Iterations 2

Number of parcels in system.... | 590
Injected liquid mass........... | 0.229099 mg
Liquid Mass in system.......... | 0.229099 mg
SMD, Dmax...................... | 25.2354 mu, 83.7593 mu
Added gas mass................. | 16.2055 mg
Evaporation Continuity Error... | 16.2055 mg
ExecutionTime = 130.2 s  ClockTime = 172 s

Courant Number mean: 0.00175296 max: 0.287063
deltaT = 4.66596e-06
 MassFlows:   inlet = -0.000452771  outlet = 0.00041721
Calculating averages

Time = 0.000525345

Evolving Spray
Solving chemistry
diagonal:  Solving for rho, Initial residual = 0, Final residual = 0, No Iterations 0
DILUPBiCG:  Solving for Ux, Initial residual = 0.130706, Final residual = 5.65453e-08, No Iterations 2
DILUPBiCG:  Solving for Uy, Initial residual = 0.000217654, Final residual = 1.89375e-07, No Iterations 1
DILUPBiCG:  Solving for Uz, Initial residual = 0.000784854, Final residual = 1.17354e-07, No Iterations 1
DILUPBiCG:  Solving for iC3H8O, Initial residual = 0, Final residual = 0, No Iterations 0
DILUPBiCG:  Solving for O2, Initial residual = 2.38862e-05, Final residual = 3.89466e-09, No Iterations 1
DILUPBiCG:  Solving for CO2, Initial residual = 0, Final residual = 0, No Iterations 0
DILUPBiCG:  Solving for H2O, Initial residual = 0, Final residual = 0, No Iterations 0
DILUPBiCG:  Solving for h, Initial residual = 0.075202, Final residual = 5.52906e-08, No Iterations 2
DICPCG:  Solving for p, Initial residual = 0.0780223, Final residual = 9.27841e-10, No Iterations 13
DICPCG:  Solving for p, Initial residual = 8.86782e-10, Final residual = 8.86782e-10, No Iterations 0
diagonal:  Solving for rho, Initial residual = 0, Final residual = 0, No Iterations 0
time step continuity errors : sum local = 2.29045e-12, global = 1.94636e-13, cumulative = 4.03355e-13
DICPCG:  Solving for p, Initial residual = 0.00301211, Final residual = 2.97502e-10, No Iterations 8
DICPCG:  Solving for p, Initial residual = 2.98249e-10, Final residual = 2.98249e-10, No Iterations 0
diagonal:  Solving for rho, Initial residual = 0, Final residual = 0, No Iterations 0
time step continuity errors : sum local = 7.67959e-13, global = 5.69084e-15, cumulative = 4.09046e-13
DILUPBiCG:  Solving for epsilon, Initial residual = 0.00089503, Final residual = 6.35293e-07, No Iterations 1
DILUPBiCG:  Solving for k, Initial residual = 0.00239364, Final residual = 1.47879e-09, No Iterations 2

Number of parcels in system.... | 600
Injected liquid mass........... | 0.231152 mg
Liquid Mass in system.......... | 0.231152 mg
SMD, Dmax...................... | 25.211 mu, 83.7593 mu
Added gas mass................. | 16.4217 mg
Evaporation Continuity Error... | 16.4217 mg
ExecutionTime = 132.21 s  ClockTime = 175 s

Courant Number mean: 0.00163119 max: 0.131232
deltaT = 5.33252e-06
 MassFlows:   inlet = -0.000452771  outlet = 0.000417205
Calculating averages

Time = 0.000530677

Evolving Spray
Solving chemistry
diagonal:  Solving for rho, Initial residual = 0, Final residual = 0, No Iterations 0
DILUPBiCG:  Solving for Ux, Initial residual = 0.155259, Final residual = 1.0065e-07, No Iterations 2
DILUPBiCG:  Solving for Uy, Initial residual = 0.000298376, Final residual = 2.58403e-07, No Iterations 1
DILUPBiCG:  Solving for Uz, Initial residual = 0.000919318, Final residual = 1.9104e-07, No Iterations 1
DILUPBiCG:  Solving for iC3H8O, Initial residual = 0, Final residual = 0, No Iterations 0
DILUPBiCG:  Solving for O2, Initial residual = 2.72209e-05, Final residual = 5.31714e-09, No Iterations 1
DILUPBiCG:  Solving for CO2, Initial residual = 0, Final residual = 0, No Iterations 0
DILUPBiCG:  Solving for H2O, Initial residual = 0, Final residual = 0, No Iterations 0
DILUPBiCG:  Solving for h, Initial residual = 0.0821339, Final residual = 8.92064e-08, No Iterations 2
DICPCG:  Solving for p, Initial residual = 0.0927949, Final residual = 6.17674e-10, No Iterations 15
DICPCG:  Solving for p, Initial residual = 5.9771e-10, Final residual = 5.9771e-10, No Iterations 0
diagonal:  Solving for rho, Initial residual = 0, Final residual = 0, No Iterations 0
time step continuity errors : sum local = 1.60644e-12, global = -1.67321e-13, cumulative = 2.41725e-13
DICPCG:  Solving for p, Initial residual = 0.00444873, Final residual = 3.31293e-10, No Iterations 9
DICPCG:  Solving for p, Initial residual = 3.32333e-10, Final residual = 3.32333e-10, No Iterations 0
diagonal:  Solving for rho, Initial residual = 0, Final residual = 0, No Iterations 0
time step continuity errors : sum local = 8.89122e-13, global = 3.11271e-14, cumulative = 2.72852e-13
DILUPBiCG:  Solving for epsilon, Initial residual = 0.00147158, Final residual = 8.73587e-10, No Iterations 2
DILUPBiCG:  Solving for k, Initial residual = 0.0037033, Final residual = 3.44473e-09, No Iterations 2

Number of parcels in system.... | 610
Injected liquid mass........... | 0.233498 mg
Liquid Mass in system.......... | 0.233498 mg
SMD, Dmax...................... | 25.21 mu, 83.7593 mu
Added gas mass................. | 16.6237 mg
Evaporation Continuity Error... | 16.6237 mg
ExecutionTime = 134.27 s  ClockTime = 177 s

Courant Number mean: 0.00248472 max: 0.312013
deltaT = 5.7769e-06
 MassFlows:   inlet = -0.00045277  outlet = 0.000417199
Calculating averages

Time = 0.000536454

Evolving Spray
Solving chemistry
diagonal:  Solving for rho, Initial residual = 0, Final residual = 0, No Iterations 0
DILUPBiCG:  Solving for Ux, Initial residual = 0.147772, Final residual = 9.29466e-08, No Iterations 2
DILUPBiCG:  Solving for Uy, Initial residual = 0.000352381, Final residual = 4.15867e-07, No Iterations 1
DILUPBiCG:  Solving for Uz, Initial residual = 0.00100478, Final residual = 2.38711e-07, No Iterations 1
DILUPBiCG:  Solving for iC3H8O, Initial residual = 0, Final residual = 0, No Iterations 0
DILUPBiCG:  Solving for O2, Initial residual = 2.93671e-05, Final residual = 6.15714e-09, No Iterations 1
DILUPBiCG:  Solving for CO2, Initial residual = 0, Final residual = 0, No Iterations 0
DILUPBiCG:  Solving for H2O, Initial residual = 0, Final residual = 0, No Iterations 0
DILUPBiCG:  Solving for h, Initial residual = 0.089587, Final residual = 1.056e-07, No Iterations 2
DICPCG:  Solving for p, Initial residual = 0.110391, Final residual = 5.99946e-10, No Iterations 16
DICPCG:  Solving for p, Initial residual = 5.95926e-10, Final residual = 5.95926e-10, No Iterations 0
diagonal:  Solving for rho, Initial residual = 0, Final residual = 0, No Iterations 0
time step continuity errors : sum local = 1.61952e-12, global = -4.78953e-14, cumulative = 2.24957e-13
DICPCG:  Solving for p, Initial residual = 0.00626699, Final residual = 8.77959e-10, No Iterations 9
DICPCG:  Solving for p, Initial residual = 8.80661e-10, Final residual = 8.80661e-10, No Iterations 0
diagonal:  Solving for rho, Initial residual = 0, Final residual = 0, No Iterations 0
time step continuity errors : sum local = 2.37864e-12, global = 8.58212e-14, cumulative = 3.10778e-13
DILUPBiCG:  Solving for epsilon, Initial residual = 0.00197238, Final residual = 1.60069e-09, No Iterations 2
DILUPBiCG:  Solving for k, Initial residual = 0.0048331, Final residual = 6.13104e-09, No Iterations 2

Number of parcels in system.... | 620
Injected liquid mass........... | 0.23604 mg
Liquid Mass in system.......... | 0.23604 mg
SMD, Dmax...................... | 25.2256 mu, 83.7593 mu
Added gas mass................. | 16.6426 mg
Evaporation Continuity Error... | 16.6426 mg
ExecutionTime = 136.32 s  ClockTime = 180 s

Courant Number mean: 0.00312526 max: 0.573888
deltaT = 3.34452e-06
 MassFlows:   inlet = -0.000452771  outlet = 0.000417191
Calculating averages

Time = 0.000539799

Evolving Spray
Solving chemistry
diagonal:  Solving for rho, Initial residual = 0, Final residual = 0, No Iterations 0
DILUPBiCG:  Solving for Ux, Initial residual = 0.086927, Final residual = 2.83271e-08, No Iterations 2
DILUPBiCG:  Solving for Uy, Initial residual = 0.000207862, Final residual = 1.03834e-07, No Iterations 1
DILUPBiCG:  Solving for Uz, Initial residual = 0.000589675, Final residual = 6.82176e-08, No Iterations 1
DILUPBiCG:  Solving for iC3H8O, Initial residual = 0, Final residual = 0, No Iterations 0
DILUPBiCG:  Solving for O2, Initial residual = 1.69052e-05, Final residual = 1.41558e-09, No Iterations 1
DILUPBiCG:  Solving for CO2, Initial residual = 0, Final residual = 0, No Iterations 0
DILUPBiCG:  Solving for H2O, Initial residual = 0, Final residual = 0, No Iterations 0
DILUPBiCG:  Solving for h, Initial residual = 0.058749, Final residual = 2.76125e-08, No Iterations 2
DICPCG:  Solving for p, Initial residual = 0.066478, Final residual = 3.61033e-10, No Iterations 11
DICPCG:  Solving for p, Initial residual = 3.61299e-10, Final residual = 3.61299e-10, No Iterations 0
diagonal:  Solving for rho, Initial residual = 0, Final residual = 0, No Iterations 0
time step continuity errors : sum local = 9.6534e-13, global = -2.27667e-15, cumulative = 3.08501e-13
DICPCG:  Solving for p, Initial residual = 0.00167747, Final residual = 6.84519e-10, No Iterations 5
DICPCG:  Solving for p, Initial residual = 6.84935e-10, Final residual = 6.84935e-10, No Iterations 0
diagonal:  Solving for rho, Initial residual = 0, Final residual = 0, No Iterations 0
time step continuity errors : sum local = 1.82798e-12, global = 1.75156e-13, cumulative = 4.83657e-13
DILUPBiCG:  Solving for epsilon, Initial residual = 0.00117144, Final residual = 5.58101e-07, No Iterations 1
DILUPBiCG:  Solving for k, Initial residual = 0.00278906, Final residual = 1.31013e-09, No Iterations 2

Number of parcels in system.... | 630
Injected liquid mass........... | 0.237511 mg
Liquid Mass in system.......... | 0.237511 mg
SMD, Dmax...................... | 25.2359 mu, 83.7593 mu
Added gas mass................. | 16.5738 mg
Evaporation Continuity Error... | 16.5738 mg
ExecutionTime = 138.12 s  ClockTime = 182 s

Courant Number mean: 0.00160534 max: 0.299639
deltaT = 3.54126e-06
 MassFlows:   inlet = -0.000452774  outlet = 0.000417185
Calculating averages

Time = 0.00054334

Evolving Spray
Solving chemistry
diagonal:  Solving for rho, Initial residual = 0, Final residual = 0, No Iterations 0
DILUPBiCG:  Solving for Ux, Initial residual = 0.10496, Final residual = 3.58778e-08, No Iterations 2
DILUPBiCG:  Solving for Uy, Initial residual = 0.000165643, Final residual = 8.32551e-08, No Iterations 1
DILUPBiCG:  Solving for Uz, Initial residual = 0.000647419, Final residual = 8.17584e-08, No Iterations 1
DILUPBiCG:  Solving for iC3H8O, Initial residual = 0, Final residual = 0, No Iterations 0
DILUPBiCG:  Solving for O2, Initial residual = 1.78322e-05, Final residual = 3.4231e-09, No Iterations 1
DILUPBiCG:  Solving for CO2, Initial residual = 0, Final residual = 0, No Iterations 0
DILUPBiCG:  Solving for H2O, Initial residual = 0, Final residual = 0, No Iterations 0
DILUPBiCG:  Solving for h, Initial residual = 0.0677446, Final residual = 3.29879e-08, No Iterations 2
DICPCG:  Solving for p, Initial residual = 0.0705909, Final residual = 9.51405e-10, No Iterations 10
DICPCG:  Solving for p, Initial residual = 9.5596e-10, Final residual = 9.5596e-10, No Iterations 0
diagonal:  Solving for rho, Initial residual = 0, Final residual = 0, No Iterations 0
time step continuity errors : sum local = 2.567e-12, global = 1.80092e-13, cumulative = 6.63749e-13
DICPCG:  Solving for p, Initial residual = 0.00167888, Final residual = 4.07217e-10, No Iterations 5
DICPCG:  Solving for p, Initial residual = 4.07589e-10, Final residual = 4.07589e-10, No Iterations 0
diagonal:  Solving for rho, Initial residual = 0, Final residual = 0, No Iterations 0
time step continuity errors : sum local = 1.09306e-12, global = 6.19995e-14, cumulative = 7.25748e-13
DILUPBiCG:  Solving for epsilon, Initial residual = 0.00114579, Final residual = 5.12184e-07, No Iterations 1
DILUPBiCG:  Solving for k, Initial residual = 0.00266955, Final residual = 1.21707e-09, No Iterations 2

Number of parcels in system.... | 640
Injected liquid mass........... | 0.23907 mg
Liquid Mass in system.......... | 0.23907 mg
SMD, Dmax...................... | 25.2515 mu, 83.7593 mu
Added gas mass................. | 16.5031 mg
Evaporation Continuity Error... | 16.5031 mg
ExecutionTime = 140.01 s  ClockTime = 184 s

Courant Number mean: 0.00132817 max: 0.146004
deltaT = 4.04715e-06
 MassFlows:   inlet = -0.000452774  outlet = 0.000417179
Calculating averages

Time = 0.000547387

Evolving Spray
Solving chemistry
diagonal:  Solving for rho, Initial residual = 0, Final residual = 0, No Iterations 0
DILUPBiCG:  Solving for Ux, Initial residual = 0.140098, Final residual = 6.65032e-08, No Iterations 2
DILUPBiCG:  Solving for Uy, Initial residual = 0.000212166, Final residual = 1.32037e-07, No Iterations 1
DILUPBiCG:  Solving for Uz, Initial residual = 0.000768622, Final residual = 1.47255e-07, No Iterations 1
DILUPBiCG:  Solving for iC3H8O, Initial residual = 0, Final residual = 0, No Iterations 0
DILUPBiCG:  Solving for O2, Initial residual = 2.031e-05, Final residual = 2.31168e-08, No Iterations 1
DILUPBiCG:  Solving for CO2, Initial residual = 0, Final residual = 0, No Iterations 0
DILUPBiCG:  Solving for H2O, Initial residual = 0, Final residual = 0, No Iterations 0
DILUPBiCG:  Solving for h, Initial residual = 0.077826, Final residual = 4.9807e-08, No Iterations 2
DICPCG:  Solving for p, Initial residual = 0.0795741, Final residual = 7.6147e-10, No Iterations 11
DICPCG:  Solving for p, Initial residual = 7.6947e-10, Final residual = 7.6947e-10, No Iterations 0
diagonal:  Solving for rho, Initial residual = 0, Final residual = 0, No Iterations 0
time step continuity errors : sum local = 2.06942e-12, global = 1.95805e-14, cumulative = 7.45329e-13
DICPCG:  Solving for p, Initial residual = 0.00247487, Final residual = 4.86722e-10, No Iterations 6
DICPCG:  Solving for p, Initial residual = 4.87601e-10, Final residual = 4.87601e-10, No Iterations 0
diagonal:  Solving for rho, Initial residual = 0, Final residual = 0, No Iterations 0
time step continuity errors : sum local = 1.30802e-12, global = 2.64569e-14, cumulative = 7.71786e-13
DILUPBiCG:  Solving for epsilon, Initial residual = 0.00143553, Final residual = 7.76239e-07, No Iterations 1
DILUPBiCG:  Solving for k, Initial residual = 0.00325629, Final residual = 1.97091e-09, No Iterations 2

Number of parcels in system.... | 650
Injected liquid mass........... | 0.24085 mg
Liquid Mass in system.......... | 0.24085 mg
SMD, Dmax...................... | 25.2176 mu, 83.7593 mu
Added gas mass................. | 16.5201 mg
Evaporation Continuity Error... | 16.5201 mg
ExecutionTime = 141.99 s  ClockTime = 187 s

Courant Number mean: 0.00168754 max: 0.228475
deltaT = 4.38441e-06
 MassFlows:   inlet = -0.000452774  outlet = 0.000417172
Calculating averages

Time = 0.000551771

Evolving Spray
Solving chemistry
diagonal:  Solving for rho, Initial residual = 0, Final residual = 0, No Iterations 0
DILUPBiCG:  Solving for Ux, Initial residual = 0.174381, Final residual = 9.84782e-08, No Iterations 2
DILUPBiCG:  Solving for Uy, Initial residual = 0.000297203, Final residual = 2.14138e-07, No Iterations 1
DILUPBiCG:  Solving for Uz, Initial residual = 0.000851512, Final residual = 1.96089e-07, No Iterations 1
DILUPBiCG:  Solving for iC3H8O, Initial residual = 0, Final residual = 0, No Iterations 0
DILUPBiCG:  Solving for O2, Initial residual = 2.19546e-05, Final residual = 2.42879e-08, No Iterations 1
DILUPBiCG:  Solving for CO2, Initial residual = 0, Final residual = 0, No Iterations 0
DILUPBiCG:  Solving for H2O, Initial residual = 0, Final residual = 0, No Iterations 0
DILUPBiCG:  Solving for h, Initial residual = 0.0827182, Final residual = 6.17186e-08, No Iterations 2
DICPCG:  Solving for p, Initial residual = 0.0944144, Final residual = 3.6315e-10, No Iterations 13
DICPCG:  Solving for p, Initial residual = 3.66854e-10, Final residual = 3.66854e-10, No Iterations 0
diagonal:  Solving for rho, Initial residual = 0, Final residual = 0, No Iterations 0
time step continuity errors : sum local = 9.83891e-13, global = 5.13308e-14, cumulative = 8.23116e-13
DICPCG:  Solving for p, Initial residual = 0.00356537, Final residual = 6.13967e-10, No Iterations 7
DICPCG:  Solving for p, Initial residual = 6.15545e-10, Final residual = 6.15545e-10, No Iterations 0
diagonal:  Solving for rho, Initial residual = 0, Final residual = 0, No Iterations 0
time step continuity errors : sum local = 1.64455e-12, global = -3.54177e-14, cumulative = 7.87699e-13
DILUPBiCG:  Solving for epsilon, Initial residual = 0.00216148, Final residual = 1.09114e-09, No Iterations 2
DILUPBiCG:  Solving for k, Initial residual = 0.00468255, Final residual = 3.73922e-09, No Iterations 2

Number of parcels in system.... | 660
Injected liquid mass........... | 0.242779 mg
Liquid Mass in system.......... | 0.242779 mg
SMD, Dmax...................... | 25.1975 mu, 83.7593 mu
Added gas mass................. | 16.7025 mg
Evaporation Continuity Error... | 16.7025 mg
ExecutionTime = 143.98 s  ClockTime = 189 s

Courant Number mean: 0.00238599 max: 0.579821
deltaT = 2.53835e-06
 MassFlows:   inlet = -0.000452775  outlet = 0.000417163
Calculating averages

Time = 0.00055431

Evolving Spray
Solving chemistry
diagonal:  Solving for rho, Initial residual = 0, Final residual = 0, No Iterations 0
DILUPBiCG:  Solving for Ux, Initial residual = 0.115842, Final residual = 2.57065e-08, No Iterations 2
DILUPBiCG:  Solving for Uy, Initial residual = 0.000210301, Final residual = 5.79778e-08, No Iterations 1
DILUPBiCG:  Solving for Uz, Initial residual = 0.000498063, Final residual = 5.51025e-08, No Iterations 1
DILUPBiCG:  Solving for iC3H8O, Initial residual = 0, Final residual = 0, No Iterations 0
DILUPBiCG:  Solving for O2, Initial residual = 0.00218032, Final residual = 8.13409e-07, No Iterations 1
DILUPBiCG:  Solving for CO2, Initial residual = 0, Final residual = 0, No Iterations 0
DILUPBiCG:  Solving for H2O, Initial residual = 1, Final residual = 4.29471e-07, No Iterations 2
DILUPBiCG:  Solving for h, Initial residual = 0.0551666, Final residual = 1.75051e-08, No Iterations 2
