/*---------------------------------------------------------------------------*\
| =========                 |                                                 |
| \\      /  F ield         | OpenFOAM: The Open Source CFD Toolbox           |
|  \\    /   O peration     | Version:  1.7.x                                 |
|   \\  /    A nd           | Web:      www.OpenFOAM.com                      |
|    \\/     M anipulation  |                                                 |
\*---------------------------------------------------------------------------*/
Build  : 1.7.x-3776603e4c6c
Exec   : lowMachDieselFoam
Date   : Apr 09 2011
Time   : 12:51:58
Host   : piccinini-laptop
PID    : 7732
Case   : /home/piccinini/master/icodieselspray/trunk/cases/2D/spray_4/lowMach.coarse
nProcs : 1
SigFpe : Enabling floating point exception trapping (FOAM_SIGFPE).

// * * * * * * * * * * * * * * * * * * * * * * * * * * * * * * * * * * * * * //
Create time

Create mesh for time = 0


Reading thermophysicalProperties
Selecting psiChemistryModel ODEChemistryModel<gasThermoPhysics>
Selecting thermodynamics package hsPsiMixtureThermo<reactingMixture<gasThermoPhysics>>
Selecting chemistryReader chemkinReader
Selecting chemistrySolver ode
Selecting ODE solver SIBS
ODEChemistryModel: Number of species = 5 and reactions = 1
Reading field U

Reading field pd

Reading/calculating face flux field phi

Creating turbulence model.

Selecting turbulence model type RASModel
Selecting RAS turbulence model kEpsilon
kEpsilonCoeffs
{
    Cmu             0.09;
    C1              1.44;
    C2              1.92;
    alphaEps        0.76923;
    C3              -0.33;
    sigmak          1;
    sigmaEps        1.3;
    Prt             1;
}


Reading g
Reading combustion properties

Constructing Spray
Selecting injectorType definedInjector
Selecting atomizationModel off
Selecting dragModel standardDragModel
Selecting evaporationModel standardEvaporationModel
Selecting heatTransferModel RanzMarshall
Selecting wallModel reflect
Selecting breakupModel off
Selecting collisionModel off
Selecting dispersionModel stochasticDispersionRAS
Selecting injectorModel hollowConeInjector
Selecting pdfType lognormal
Average Velocity for injector 0: 12.75 m/s, injection pressure = 1.6283 bar
Constructing two dimensional spray injection.Calculated angle of wedge is 5 deg.
Courant Number mean: 4.32349e-05 max: 0.00341679

Starting time loop

Courant Number mean: 4.32349e-05 max: 0.00341679
--> FOAM Warning : 
    From function SolverInfo::SolverInfo(const dictionary& dict,const objectRegistry &obr)
    in file SolverInfo/SolverInfo.C at line 88
    Neither LES nor RANS found. Assuming no turbulence
Time = 1e-06

Evolving Spray
 z = 465.767
 z = 63.821
 z = 356.187
 z = 75.4728
 z = 257.698
 z = 81.2172
 z = 180.152
 z = 78.1568
 z = 126.193
 z = 68.8265
 z = 91.2327
 z = 57.9839
 z = 68.7984
 z = 48.38
 z = 53.9941
 z = 40.6646
 z = 43.8201
 z = 34.6341
 z = 36.5396
 z = 29.9165
Solving chemistry
diagonal:  Solving for rho, Initial residual = 0, Final residual = 0, No Iterations 0
DILUPBiCG:  Solving for Ux, Initial residual = 2.15661e-05, Final residual = 1.13178e-11, No Iterations 1
DILUPBiCG:  Solving for Uy, Initial residual = 0.987189, Final residual = 7.21056e-10, No Iterations 1
DILUPBiCG:  Solving for Uz, Initial residual = 2.49573e-06, Final residual = 2.74385e-13, No Iterations 1
DILUPBiCG:  Solving for iC3H8O, Initial residual = 1, Final residual = 3.3568e-10, No Iterations 1
DILUPBiCG:  Solving for O2, Initial residual = 0.999905, Final residual = 3.35689e-10, No Iterations 1
DILUPBiCG:  Solving for CO2, Initial residual = 0, Final residual = 0, No Iterations 0
DILUPBiCG:  Solving for H2O, Initial residual = 0, Final residual = 0, No Iterations 0
DILUPBiCG:  Solving for hs, Initial residual = 0.998118, Final residual = 3.52105e-10, No Iterations 1
DICPCG:  Solving for pd, Initial residual = 0.975932, Final residual = 8.57777e-10, No Iterations 199
diagonal:  Solving for rho, Initial residual = 0, Final residual = 0, No Iterations 0
time step continuity errors : sum local = 2.13891e-16, global = -2.21084e-17, cumulative = -2.21084e-17
DICPCG:  Solving for pd, Initial residual = 0.000226557, Final residual = 8.81548e-10, No Iterations 167
diagonal:  Solving for rho, Initial residual = 0, Final residual = 0, No Iterations 0
time step continuity errors : sum local = 1.25322e-15, global = -2.59958e-17, cumulative = -4.81042e-17
DILUPBiCG:  Solving for epsilon, Initial residual = 1.29973e-06, Final residual = 1.12317e-12, No Iterations 1
DILUPBiCG:  Solving for k, Initial residual = 1.50125e-06, Final residual = 3.02051e-13, No Iterations 1

Number of parcels in system.... | 1
Injected liquid mass........... | 0.00083 mg
Liquid Mass in system.......... | 0.000768435 mg
SMD, Dmax...................... | 25.9639 mu, 25.9639 mu
Added gas mass................. | 4.15596e-05 mg
Evaporation Continuity Error... | -2.0005e-05 mg
ExecutionTime = 0.69 s  ClockTime = 1 s
T max/min : 373 371.996
rho max/min : 0.941001 0.930272
pd max/min : 100000 5975.15

Courant Number mean: 4.35339e-05 max: 0.00336873
 MassFlows:   inlet = -0.000291  outlet = 0.000291278
Time = 2e-06

Evolving Spray
 z = 22.1185
 z = 19.053
 z = 19.5035
 z = 17.0443
 z = 17.3788
 z = 15.3693
 z = 15.6239
 z = 13.9558
 z = 14.1538
 z = 12.7502
 z = 12.9071
 z = 11.7119
 z = 11.8383
 z = 10.81
 z = 10.9133
 z = 10.0206
 z = 10.1059
 z = 9.32458
 z = 9.39596
 z = 8.70711
 z = 406.214
 z = 133.168
 z = 284.269
 z = 126.238
 z = 199.839
 z = 110.178
 z = 144.96
 z = 92.4155
 z = 109.486
 z = 76.9048
 z = 85.9006
 z = 64.4792
 z = 69.5945
 z = 54.7602
 z = 57.8752
 z = 47.1461
 z = 49.1564
 z = 41.1133
 z = 42.4748
 z = 36.2643
Solving chemistry
diagonal:  Solving for rho, Initial residual = 0, Final residual = 0, No Iterations 0
DILUPBiCG:  Solving for Ux, Initial residual = 0.00360874, Final residual = 5.48296e-10, No Iterations 1
DILUPBiCG:  Solving for Uy, Initial residual = 0.00047251, Final residual = 1.39244e-14, No Iterations 1
DILUPBiCG:  Solving for Uz, Initial residual = 0.00471047, Final residual = 4.23987e-10, No Iterations 1
DILUPBiCG:  Solving for iC3H8O, Initial residual = 0.000494015, Final residual = 7.2729e-13, No Iterations 1
DILUPBiCG:  Solving for O2, Initial residual = 0.000494016, Final residual = 7.27796e-13, No Iterations 1
DILUPBiCG:  Solving for CO2, Initial residual = 0, Final residual = 0, No Iterations 0
DILUPBiCG:  Solving for H2O, Initial residual = 0, Final residual = 0, No Iterations 0
DILUPBiCG:  Solving for hs, Initial residual = 0.000478908, Final residual = 7.46286e-13, No Iterations 1
DICPCG:  Solving for pd, Initial residual = 0.0230378, Final residual = 6.85444e-10, No Iterations 188
diagonal:  Solving for rho, Initial residual = 0, Final residual = 0, No Iterations 0
time step continuity errors : sum local = 9.75053e-16, global = -1.74318e-17, cumulative = -6.55359e-17
DICPCG:  Solving for pd, Initial residual = 0.0182423, Final residual = 9.73798e-10, No Iterations 181
diagonal:  Solving for rho, Initial residual = 0, Final residual = 0, No Iterations 0
time step continuity errors : sum local = 2.0852e-16, global = -1.86462e-17, cumulative = -8.41822e-17
DILUPBiCG:  Solving for epsilon, Initial residual = 1.30634e-06, Final residual = 5.23186e-13, No Iterations 1
DILUPBiCG:  Solving for k, Initial residual = 1.50029e-06, Final residual = 3.02023e-13, No Iterations 1

Number of parcels in system.... | 2
Injected liquid mass........... | 0.00166 mg
Liquid Mass in system.......... | 0.00153379 mg
SMD, Dmax...................... | 29.4418 mu, 34.1183 mu
Added gas mass................. | 8.49085e-05 mg
Evaporation Continuity Error... | -4.13005e-05 mg
ExecutionTime = 1.04 s  ClockTime = 1 s
T max/min : 373 371.006
rho max/min : 0.95205 0.930272
pd max/min : 100330 100000

Courant Number mean: 4.35327e-05 max: 0.0036151
 MassFlows:   inlet = -0.000291  outlet = 0.000291296
Time = 3e-06

Evolving Spray
 z = 1.95165
 z = 1.85377
 z = 1.85939
 z = 1.76758
 z = 1.77277
 z = 1.68656
 z = 1.69138
 z = 1.61032
 z = 1.61479
 z = 1.53851
 z = 1.54267
 z = 1.47081
 z = 1.47469
 z = 1.40693
 z = 1.41054
 z = 1.3466
 z = 1.34997
 z = 1.28957
 z = 1.29272
 z = 1.23562
 z = 25.8754
 z = 22.8619
 z = 23.242
 z = 20.7248
 z = 21.0234
 z = 18.8943
 z = 19.1329
 z = 17.3124
 z = 17.5058
 z = 15.9341
 z = 16.093
 z = 14.7245
 z = 14.8566
 z = 13.6559
 z = 13.7668
 z = 12.7062
 z = 12.8002
 z = 11.8575
 z = 11.9379
 z = 11.0954
 z = 427.397
 z = 7.47657
 z = 403.715
 z = 9.33851
 z = 375.836
 z = 11.7936
 z = 343.156
 z = 15.0303
 z = 305.263
 z = 19.2279
 z = 262.303
 z = 24.4137
 z = 215.556
 z = 30.1497
 z = 168.02
 z = 35.153
 z = 124.233
 z = 37.5011
 z = 88.4996
 z = 36.0869
Solving chemistry
diagonal:  Solving for rho, Initial residual = 0, Final residual = 0, No Iterations 0
DILUPBiCG:  Solving for Ux, Initial residual = 3.06035e-05, Final residual = 8.35833e-12, No Iterations 1
DILUPBiCG:  Solving for Uy, Initial residual = 0.00846998, Final residual = 1.06784e-12, No Iterations 1
DILUPBiCG:  Solving for Uz, Initial residual = 1.17908e-05, Final residual = 1.37309e-12, No Iterations 1
DILUPBiCG:  Solving for iC3H8O, Initial residual = 0.000194693, Final residual = 5.18265e-13, No Iterations 1
DILUPBiCG:  Solving for O2, Initial residual = 0.000194693, Final residual = 5.20663e-13, No Iterations 1
DILUPBiCG:  Solving for CO2, Initial residual = 0, Final residual = 0, No Iterations 0
DILUPBiCG:  Solving for H2O, Initial residual = 0, Final residual = 0, No Iterations 0
DILUPBiCG:  Solving for hs, Initial residual = 0.000189215, Final residual = 5.38637e-13, No Iterations 1
DICPCG:  Solving for pd, Initial residual = 0.0616234, Final residual = 6.55455e-10, No Iterations 191
diagonal:  Solving for rho, Initial residual = 0, Final residual = 0, No Iterations 0
time step continuity errors : sum local = 1.99894e-16, global = -1.96351e-17, cumulative = -1.03817e-16
DICPCG:  Solving for pd, Initial residual = 0.000296161, Final residual = 9.39576e-10, No Iterations 171
diagonal:  Solving for rho, Initial residual = 0, Final residual = 0, No Iterations 0
time step continuity errors : sum local = 1.9329e-16, global = -2.04081e-17, cumulative = -1.24225e-16
DILUPBiCG:  Solving for epsilon, Initial residual = 1.31342e-06, Final residual = 4.23786e-13, No Iterations 1
DILUPBiCG:  Solving for k, Initial residual = 1.49906e-06, Final residual = 3.02253e-13, No Iterations 1

Number of parcels in system.... | 3
Injected liquid mass........... | 0.00249 mg
Liquid Mass in system.......... | 0.00231186 mg
SMD, Dmax...................... | 25.2049 mu, 33.9158 mu
Added gas mass................. | 0.000119585 mg
Evaporation Continuity Error... | -5.85565e-05 mg
ExecutionTime = 1.39 s  ClockTime = 2 s
T max/min : 373 370.253
rho max/min : 0.960773 0.930272
pd max/min : 100000 99297.5

Courant Number mean: 4.35365e-05 max: 0.00336723
 MassFlows:   inlet = -0.000291  outlet = 0.00029124
Time = 4e-06

Evolving Spray
 z = 7.72595e-19
 z = 7.72635e-19
 z = 7.72619e-19
 z = 7.72659e-19
 z = 7.72643e-19
 z = 7.72682e-19
 z = 7.72667e-19
 z = 7.72706e-19
 z = 7.72691e-19
 z = 7.7273e-19
 z = 7.72715e-19
 z = 7.72754e-19
 z = 7.72738e-19
 z = 7.72778e-19
 z = 7.72762e-19
 z = 7.72802e-19
 z = 7.72786e-19
 z = 7.72826e-19
 z = 7.7281e-19
 z = 7.72849e-19
 z = 4.03618
 z = 3.80839
 z = 3.82259
 z = 3.61038
 z = 3.62339
 z = 3.4254
 z = 3.43735
 z = 3.25236
 z = 3.26336
 z = 3.09027
 z = 3.10042
 z = 2.93828
 z = 2.94765
 z = 2.79557
 z = 2.80425
 z = 2.66145
 z = 2.6695
 z = 2.53527
 z = 2.54275
 z = 2.41644
 z = 48.9604
 z = 26.0023
 z = 35.5834
 z = 21.482
 z = 26.575
 z = 17.5365
 z = 20.3987
 z = 14.3342
 z = 16.0432
 z = 11.7996
 z = 12.879
 z = 9.79991
 z = 10.516
 z = 8.21249
 z = 8.70774
 z = 6.93986
 z = 7.2947
 z = 5.90853
 z = 6.1705
 z = 5.06393
 z = 501.181
 z = 4.03395e-20
 z = 502.574
 z = 4.03157e-20
 z = 503.957
 z = 4.0292e-20
 z = 505.333
 z = 4.02685e-20
 z = 506.701
 z = 4.02452e-20
 z = 508.063
 z = 4.0222e-20
 z = 509.416
 z = 4.01989e-20
 z = 510.763
 z = 4.01761e-20
 z = 512.102
 z = 4.01533e-20
 z = 513.433
 z = 4.01308e-20
Solving chemistry
diagonal:  Solving for rho, Initial residual = 0, Final residual = 0, No Iterations 0
DILUPBiCG:  Solving for Ux, Initial residual = 6.26734e-05, Final residual = 1.83347e-11, No Iterations 1
DILUPBiCG:  Solving for Uy, Initial residual = 0.000517516, Final residual = 1.94443e-13, No Iterations 1
DILUPBiCG:  Solving for Uz, Initial residual = 3.356e-05, Final residual = 8.38359e-12, No Iterations 1
DILUPBiCG:  Solving for iC3H8O, Initial residual = 6.20334e-05, Final residual = 3.85326e-13, No Iterations 1
DILUPBiCG:  Solving for O2, Initial residual = 6.20334e-05, Final residual = 4.12552e-13, No Iterations 1
DILUPBiCG:  Solving for CO2, Initial residual = 0, Final residual = 0, No Iterations 0
DILUPBiCG:  Solving for H2O, Initial residual = 0, Final residual = 0, No Iterations 0
DILUPBiCG:  Solving for hs, Initial residual = 0.000175209, Final residual = 4.96668e-13, No Iterations 1
DICPCG:  Solving for pd, Initial residual = 0.0242508, Final residual = 6.64986e-10, No Iterations 190
diagonal:  Solving for rho, Initial residual = 0, Final residual = 0, No Iterations 0
time step continuity errors : sum local = 2.09654e-16, global = -1.93625e-17, cumulative = -1.43588e-16
DICPCG:  Solving for pd, Initial residual = 0.000181156, Final residual = 9.18441e-10, No Iterations 170
diagonal:  Solving for rho, Initial residual = 0, Final residual = 0, No Iterations 0
time step continuity errors : sum local = 2.07699e-16, global = -1.99172e-17, cumulative = -1.63505e-16
DILUPBiCG:  Solving for epsilon, Initial residual = 1.32236e-06, Final residual = 2.60864e-13, No Iterations 1
DILUPBiCG:  Solving for k, Initial residual = 1.49774e-06, Final residual = 3.02638e-13, No Iterations 1

Number of parcels in system.... | 4
Injected liquid mass........... | 0.00332 mg
Liquid Mass in system.......... | 0.00311899 mg
SMD, Dmax...................... | 13.8063 mu, 33.8773 mu
Added gas mass................. | 0.000136716 mg
Evaporation Continuity Error... | -6.42961e-05 mg
ExecutionTime = 1.72 s  ClockTime = 2 s
T max/min : 373 369.775
rho max/min : 0.964953 0.930272
pd max/min : 100000 97847.6

Courant Number mean: 4.35475e-05 max: 0.00336735
 MassFlows:   inlet = -0.000291  outlet = 0.00029108
Time = 5e-06

Evolving Spray
 z = 7.71433e-19
 z = 7.71473e-19
 z = 7.71453e-19
 z = 7.71493e-19
 z = 7.71474e-19
 z = 7.71513e-19
 z = 7.71494e-19
 z = 7.71534e-19
 z = 7.71514e-19
 z = 7.71554e-19
 z = 7.71535e-19
 z = 7.71574e-19
 z = 7.71555e-19
 z = 7.71594e-19
 z = 7.71575e-19
 z = 7.71615e-19
 z = 7.71596e-19
 z = 7.71635e-19
 z = 7.71616e-19
 z = 7.71655e-19
 z = 1.22476e-18
 z = 1.2248e-18
 z = 1.22478e-18
 z = 1.22483e-18
 z = 1.22481e-18
 z = 1.22485e-18
 z = 1.22483e-18
 z = 1.22487e-18
 z = 1.22485e-18
 z = 1.22489e-18
 z = 1.22487e-18
 z = 1.22491e-18
 z = 1.2249e-18
 z = 1.22494e-18
 z = 1.22492e-18
 z = 1.22496e-18
 z = 1.22494e-18
 z = 1.22498e-18
 z = 1.22496e-18
 z = 1.225e-18
 z = 1.66132
 z = 1.40519
 z = 1.44705
 z = 1.2291
 z = 1.2643
 z = 1.07822
 z = 1.10798
 z = 0.948628
 z = 0.97389
 z = 0.83709
 z = 0.858613
 z = 0.740915
 z = 0.75931
 z = 0.657852
 z = 0.673617
 z = 0.586015
 z = 0.599559
 z = 0.523811
 z = 0.53547
 z = 0.469891
 z = 498.286
 z = 4.03095e-20
 z = 499.804
 z = 4.02975e-20
 z = 501.315
 z = 4.02856e-20
 z = 502.818
 z = 4.02739e-20
 z = 504.315
 z = 4.02623e-20
 z = 505.804
 z = 4.02508e-20
 z = 507.286
 z = 4.02395e-20
 z = 508.761
 z = 4.02284e-20
 z = 510.23
 z = 4.02173e-20
 z = 511.69
 z = 4.02065e-20
 z = 332.638
 z = 127.349
 z = 233.854
 z = 114.609
 z = 166.879
 z = 97.1795
 z = 122.957
 z = 80.483
 z = 93.8681
 z = 66.5631
 z = 74.0067
 z = 55.5234
 z = 59.9514
 z = 46.8642
 z = 49.6595
 z = 40.0362
 z = 41.8919
 z = 34.5897
 z = 35.8746
 z = 30.1865
Solving chemistry
diagonal:  Solving for rho, Initial residual = 0, Final residual = 0, No Iterations 0
DILUPBiCG:  Solving for Ux, Initial residual = 0.000154074, Final residual = 4.16195e-11, No Iterations 1
DILUPBiCG:  Solving for Uy, Initial residual = 2.41703e-05, Final residual = 2.15137e-13, No Iterations 1
DILUPBiCG:  Solving for Uz, Initial residual = 9.63387e-05, Final residual = 2.29633e-11, No Iterations 1
DILUPBiCG:  Solving for iC3H8O, Initial residual = 0.000102458, Final residual = 2.7587e-13, No Iterations 1
DILUPBiCG:  Solving for O2, Initial residual = 0.000102458, Final residual = 2.77415e-13, No Iterations 1
DILUPBiCG:  Solving for CO2, Initial residual = 0, Final residual = 0, No Iterations 0
DILUPBiCG:  Solving for H2O, Initial residual = 0, Final residual = 0, No Iterations 0
DILUPBiCG:  Solving for hs, Initial residual = 0.000177636, Final residual = 3.29745e-13, No Iterations 1
DICPCG:  Solving for pd, Initial residual = 0.0162291, Final residual = 7.21887e-10, No Iterations 190
diagonal:  Solving for rho, Initial residual = 0, Final residual = 0, No Iterations 0
time step continuity errors : sum local = 2.22866e-16, global = -2.1754e-17, cumulative = -1.85259e-16
DICPCG:  Solving for pd, Initial residual = 0.000684602, Final residual = 7.54153e-10, No Iterations 176
diagonal:  Solving for rho, Initial residual = 0, Final residual = 0, No Iterations 0
time step continuity errors : sum local = 2.05148e-16, global = -2.14709e-17, cumulative = -2.0673e-16
DILUPBiCG:  Solving for epsilon, Initial residual = 1.32641e-06, Final residual = 3.62942e-13, No Iterations 1
DILUPBiCG:  Solving for k, Initial residual = 1.497e-06, Final residual = 3.02298e-13, No Iterations 1

Number of parcels in system.... | 5
Injected liquid mass........... | 0.00415 mg
Liquid Mass in system.......... | 0.00390499 mg
SMD, Dmax...................... | 15.7644 mu, 35.9214 mu
Added gas mass................. | 0.000167122 mg
Evaporation Continuity Error... | -7.78847e-05 mg
ExecutionTime = 2.05 s  ClockTime = 2 s
T max/min : 373 369.001
rho max/min : 0.97264 0.930272
pd max/min : 101399 100000

Courant Number mean: 4.35398e-05 max: 0.00336729
 MassFlows:   inlet = -0.000291  outlet = 0.000291189
Time = 6e-06

Evolving Spray
 z = 7.73259e-19
 z = 7.73298e-19
 z = 7.73284e-19
 z = 7.73323e-19
 z = 7.73308e-19
 z = 7.73348e-19
 z = 7.73333e-19
 z = 7.73372e-19
 z = 7.73357e-19
 z = 7.73397e-19
 z = 7.73382e-19
 z = 7.73421e-19
 z = 7.73407e-19
 z = 7.73446e-19
 z = 7.73431e-19
 z = 7.73471e-19
 z = 7.73456e-19
 z = 7.73495e-19
 z = 7.7348e-19
 z = 7.7352e-19
 z = 1.22753e-18
 z = 1.22757e-18
 z = 1.22756e-18
 z = 1.2276e-18
 z = 1.22759e-18
 z = 1.22763e-18
 z = 1.22762e-18
 z = 1.22766e-18
 z = 1.22765e-18
 z = 1.22769e-18
 z = 1.22767e-18
 z = 1.22772e-18
 z = 1.2277e-18
 z = 1.22775e-18
 z = 1.22773e-18
 z = 1.22778e-18
 z = 1.22776e-18
 z = 1.2278e-18
 z = 1.22779e-18
 z = 1.22783e-18
 z = 4.75052e-19
 z = 4.75089e-19
 z = 4.75074e-19
 z = 4.7511e-19
 z = 4.75095e-19
 z = 4.75131e-19
 z = 4.75117e-19
 z = 4.75153e-19
 z = 4.75138e-19
 z = 4.75174e-19
 z = 4.75159e-19
 z = 4.75195e-19
 z = 4.75181e-19
 z = 4.75217e-19
 z = 4.75202e-19
 z = 4.75238e-19
 z = 4.75224e-19
 z = 4.7526e-19
 z = 4.75245e-19
 z = 4.75281e-19
 z = 481.87
 z = 4.06996e-20
 z = 483.487
 z = 4.06855e-20
 z = 485.097
 z = 4.06716e-20
 z = 486.699
 z = 4.06578e-20
 z = 488.294
 z = 4.06441e-20
 z = 489.881
 z = 4.06307e-20
 z = 491.461
 z = 4.06173e-20
 z = 493.034
 z = 4.06042e-20
 z = 494.599
 z = 4.05911e-20
 z = 496.157
 z = 4.05783e-20
 z = 21.7634
 z = 18.8298
 z = 19.2381
 z = 16.7914
 z = 17.1142
 z = 15.0498
 z = 15.309
 z = 13.5494
 z = 13.7605
 z = 12.2473
 z = 12.4214
 z = 11.1096
 z = 11.2548
 z = 10.1098
 z = 10.232
 z = 9.22617
 z = 9.32994
 z = 8.44149
 z = 8.53031
 z = 7.74152
 z = 395.044
 z = 1.8934e-19
 z = 395.745
 z = 1.89285e-19
 z = 396.446
 z = 1.8923e-19
 z = 397.147
 z = 1.89174e-19
 z = 397.85
 z = 1.89119e-19
 z = 398.553
 z = 1.89064e-19
 z = 399.258
 z = 1.89009e-19
 z = 399.963
 z = 1.88954e-19
 z = 400.67
 z = 1.88898e-19
 z = 401.377
 z = 1.88843e-19
Solving chemistry
diagonal:  Solving for rho, Initial residual = 0, Final residual = 0, No Iterations 0
DILUPBiCG:  Solving for Ux, Initial residual = 0.000108629, Final residual = 2.97817e-11, No Iterations 1
DILUPBiCG:  Solving for Uy, Initial residual = 0.000174355, Final residual = 6.50805e-14, No Iterations 1
DILUPBiCG:  Solving for Uz, Initial residual = 6.66543e-05, Final residual = 1.54353e-11, No Iterations 1
DILUPBiCG:  Solving for iC3H8O, Initial residual = 1.55986e-05, Final residual = 3.07565e-13, No Iterations 1
DILUPBiCG:  Solving for O2, Initial residual = 1.55986e-05, Final residual = 3.14046e-13, No Iterations 1
DILUPBiCG:  Solving for CO2, Initial residual = 0, Final residual = 0, No Iterations 0
DILUPBiCG:  Solving for H2O, Initial residual = 0, Final residual = 0, No Iterations 0
DILUPBiCG:  Solving for hs, Initial residual = 0.000125174, Final residual = 4.10994e-13, No Iterations 1
DICPCG:  Solving for pd, Initial residual = 0.0234953, Final residual = 7.65638e-10, No Iterations 191
diagonal:  Solving for rho, Initial residual = 0, Final residual = 0, No Iterations 0
time step continuity errors : sum local = 2.07453e-16, global = -2.0832e-17, cumulative = -2.27562e-16
DICPCG:  Solving for pd, Initial residual = 0.000435051, Final residual = 8.75385e-10, No Iterations 173
diagonal:  Solving for rho, Initial residual = 0, Final residual = 0, No Iterations 0
time step continuity errors : sum local = 2.20062e-16, global = -2.23704e-17, cumulative = -2.49932e-16
DILUPBiCG:  Solving for epsilon, Initial residual = 1.33628e-06, Final residual = 2.67288e-13, No Iterations 1
DILUPBiCG:  Solving for k, Initial residual = 1.49575e-06, Final residual = 3.02653e-13, No Iterations 1

Number of parcels in system.... | 6
Injected liquid mass........... | 0.00498 mg
Liquid Mass in system.......... | 0.00472773 mg
SMD, Dmax...................... | 15.2499 mu, 35.7702 mu
Added gas mass................. | 0.000175379 mg
Evaporation Continuity Error... | -7.68936e-05 mg
ExecutionTime = 2.39 s  ClockTime = 3 s
T max/min : 373 368.624
rho max/min : 0.974501 0.930272
pd max/min : 100000 97265.6

Courant Number mean: 4.35537e-05 max: 0.00336742
 MassFlows:   inlet = -0.000291  outlet = 0.000290986
Time = 7e-06

Evolving Spray
 z = 7.71717e-19
 z = 7.71756e-19
 z = 7.71736e-19
 z = 7.71776e-19
 z = 7.71756e-19
 z = 7.71796e-19
 z = 7.71776e-19
 z = 7.71815e-19
 z = 7.71796e-19
 z = 7.71835e-19
 z = 7.71816e-19
 z = 7.71855e-19
 z = 7.71835e-19
 z = 7.71875e-19
 z = 7.71855e-19
 z = 7.71894e-19
 z = 7.71875e-19
 z = 7.71914e-19
 z = 7.71895e-19
 z = 7.71934e-19
 z = 1.22487e-18
 z = 1.22491e-18
 z = 1.22489e-18
 z = 1.22493e-18
 z = 1.22491e-18
 z = 1.22495e-18
 z = 1.22493e-18
 z = 1.22497e-18
 z = 1.22495e-18
 z = 1.225e-18
 z = 1.22498e-18
 z = 1.22502e-18
 z = 1.225e-18
 z = 1.22504e-18
 z = 1.22502e-18
 z = 1.22506e-18
 z = 1.22504e-18
 z = 1.22508e-18
 z = 1.22506e-18
 z = 1.2251e-18
 z = 4.74307e-19
 z = 4.74343e-19
 z = 4.74326e-19
 z = 4.74362e-19
 z = 4.74344e-19
 z = 4.7438e-19
 z = 4.74363e-19
 z = 4.74399e-19
 z = 4.74382e-19
 z = 4.74418e-19
 z = 4.744e-19
 z = 4.74436e-19
 z = 4.74419e-19
 z = 4.74455e-19
 z = 4.74437e-19
 z = 4.74473e-19
 z = 4.74456e-19
 z = 4.74492e-19
 z = 4.74475e-19
 z = 4.74511e-19
 z = 492.131
 z = 4.05745e-20
 z = 493.691
 z = 4.05614e-20
 z = 495.243
 z = 4.05484e-20
 z = 496.789
 z = 4.05356e-20
 z = 498.326
 z = 4.05229e-20
 z = 499.857
 z = 4.05104e-20
 z = 501.38
 z = 4.0498e-20
 z = 502.896
 z = 4.04858e-20
 z = 504.404
 z = 4.04737e-20
 z = 505.905
 z = 4.04618e-20
 z = 6.58014
 z = 5.99819
 z = 6.05194
 z = 5.52821
 z = 5.57554
 z = 5.10269
 z = 5.14456
 z = 4.71642
 z = 4.75362
 z = 4.36495
 z = 4.39813
 z = 4.04443
 z = 4.07413
 z = 3.75155
 z = 3.77824
 z = 3.48345
 z = 3.5075
 z = 3.23761
 z = 3.25935
 z = 3.01184
 z = 397.377
 z = 1.88807e-19
 z = 398.113
 z = 1.88769e-19
 z = 398.85
 z = 1.88731e-19
 z = 399.588
 z = 1.88694e-19
 z = 400.327
 z = 1.88656e-19
 z = 401.067
 z = 1.88618e-19
 z = 401.809
 z = 1.8858e-19
 z = 402.551
 z = 1.88542e-19
 z = 403.294
 z = 1.88504e-19
 z = 404.039
 z = 1.88466e-19
 z = 401.374
 z = 1.4235e-19
 z = 402.315
 z = 1.42291e-19
 z = 403.258
 z = 1.42231e-19
 z = 404.202
 z = 1.42171e-19
 z = 405.148
 z = 1.42112e-19
 z = 406.095
 z = 1.42053e-19
 z = 407.045
 z = 1.41993e-19
 z = 407.996
 z = 1.41934e-19
 z = 408.949
 z = 1.41875e-19
 z = 409.904
 z = 1.41815e-19
Solving chemistry
diagonal:  Solving for rho, Initial residual = 0, Final residual = 0, No Iterations 0
DILUPBiCG:  Solving for Ux, Initial residual = 0.000191031, Final residual = 5.06496e-11, No Iterations 1
DILUPBiCG:  Solving for Uy, Initial residual = 4.55214e-05, Final residual = 1.38327e-13, No Iterations 1
DILUPBiCG:  Solving for Uz, Initial residual = 0.000122097, Final residual = 2.77828e-11, No Iterations 1
DILUPBiCG:  Solving for iC3H8O, Initial residual = 4.67824e-06, Final residual = 1.51525e-13, No Iterations 1
DILUPBiCG:  Solving for O2, Initial residual = 4.67826e-06, Final residual = 1.60951e-13, No Iterations 1
DILUPBiCG:  Solving for CO2, Initial residual = 0, Final residual = 0, No Iterations 0
DILUPBiCG:  Solving for H2O, Initial residual = 0, Final residual = 0, No Iterations 0
DILUPBiCG:  Solving for hs, Initial residual = 0.000123759, Final residual = 1.89218e-13, No Iterations 1
DICPCG:  Solving for pd, Initial residual = 0.00897622, Final residual = 9.52034e-10, No Iterations 188
diagonal:  Solving for rho, Initial residual = 0, Final residual = 0, No Iterations 0
time step continuity errors : sum local = 2.29236e-16, global = -2.30986e-17, cumulative = -2.73031e-16
DICPCG:  Solving for pd, Initial residual = 0.00106573, Final residual = 8.36487e-10, No Iterations 177
diagonal:  Solving for rho, Initial residual = 0, Final residual = 0, No Iterations 0
time step continuity errors : sum local = 1.98496e-16, global = -2.29259e-17, cumulative = -2.95957e-16
DILUPBiCG:  Solving for epsilon, Initial residual = 1.3428e-06, Final residual = 2.68401e-13, No Iterations 1
DILUPBiCG:  Solving for k, Initial residual = 1.49479e-06, Final residual = 3.02619e-13, No Iterations 1

Number of parcels in system.... | 7
Injected liquid mass........... | 0.00581 mg
Liquid Mass in system.......... | 0.00555519 mg
SMD, Dmax...................... | 14.5637 mu, 35.7171 mu
Added gas mass................. | 0.000180938 mg
Evaporation Continuity Error... | -7.38758e-05 mg
ExecutionTime = 2.72 s  ClockTime = 3 s
T max/min : 373 368.217
rho max/min : 0.975821 0.930272
pd max/min : 100000 99405.7

Courant Number mean: 4.35555e-05 max: 0.00336744
 MassFlows:   inlet = -0.000291  outlet = 0.000290958
Time = 8e-06

Evolving Spray
 z = 7.71621e-19
 z = 7.71661e-19
 z = 7.7164e-19
 z = 7.71679e-19
 z = 7.71658e-19
 z = 7.71697e-19
 z = 7.71676e-19
 z = 7.71716e-19
 z = 7.71695e-19
 z = 7.71734e-19
 z = 7.71713e-19
 z = 7.71752e-19
 z = 7.71731e-19
 z = 7.71771e-19
 z = 7.7175e-19
 z = 7.71789e-19
 z = 7.71768e-19
 z = 7.71807e-19
 z = 7.71786e-19
 z = 7.71826e-19
 z = 1.22459e-18
 z = 1.22463e-18
 z = 1.22461e-18
 z = 1.22465e-18
 z = 1.22463e-18
 z = 1.22467e-18
 z = 1.22465e-18
 z = 1.22469e-18
 z = 1.22467e-18
 z = 1.22471e-18
 z = 1.22469e-18
 z = 1.22473e-18
 z = 1.22471e-18
 z = 1.22475e-18
 z = 1.22473e-18
 z = 1.22477e-18
 z = 1.22474e-18
 z = 1.22479e-18
 z = 1.22476e-18
 z = 1.2248e-18
 z = 4.74348e-19
 z = 4.74384e-19
 z = 4.74366e-19
 z = 4.74402e-19
 z = 4.74384e-19
 z = 4.7442e-19
 z = 4.74402e-19
 z = 4.74438e-19
 z = 4.7442e-19
 z = 4.74456e-19
 z = 4.74438e-19
 z = 4.74473e-19
 z = 4.74455e-19
 z = 4.74491e-19
 z = 4.74473e-19
 z = 4.74509e-19
 z = 4.74491e-19
 z = 4.74527e-19
 z = 4.74509e-19
 z = 4.74545e-19
 z = 506.022
 z = 4.04572e-20
 z = 507.499
 z = 4.04456e-20
 z = 508.97
 z = 4.04342e-20
 z = 510.433
 z = 4.04229e-20
 z = 511.888
 z = 4.04118e-20
 z = 513.337
 z = 4.04008e-20
 z = 514.778
 z = 4.03899e-20
 z = 516.212
 z = 4.03792e-20
 z = 517.639
 z = 4.03686e-20
 z = 519.058
 z = 4.03582e-20
 z = 2.7078
 z = 2.50626
 z = 2.52203
 z = 2.33642
 z = 2.35082
 z = 2.17968
 z = 2.19285
 z = 2.03488
 z = 2.04694
 z = 1.90098
 z = 1.91205
 z = 1.77707
 z = 1.78723
 z = 1.6623
 z = 1.67164
 z = 1.55592
 z = 1.56453
 z = 1.45726
 z = 1.46519
 z = 1.36569
 z = 403.64
 z = 1.88462e-19
 z = 404.381
 z = 1.88424e-19
 z = 405.123
 z = 1.88386e-19
 z = 405.866
 z = 1.88348e-19
 z = 406.61
 z = 1.8831e-19
 z = 407.355
 z = 1.88272e-19
 z = 408.101
 z = 1.88234e-19
 z = 408.848
 z = 1.88196e-19
 z = 409.596
 z = 1.88158e-19
 z = 410.346
 z = 1.88119e-19
 z = 409.686
 z = 1.41803e-19
 z = 410.682
 z = 1.41761e-19
 z = 411.681
 z = 1.41719e-19
 z = 412.681
 z = 1.41677e-19
 z = 413.684
 z = 1.41635e-19
 z = 414.688
 z = 1.41592e-19
 z = 415.694
 z = 1.4155e-19
 z = 416.702
 z = 1.41508e-19
 z = 417.711
 z = 1.41466e-19
 z = 418.722
 z = 1.41424e-19
 z = 327.202
 z = 62.5044
 z = 246.651
 z = 67.6891
 z = 178.339
 z = 66.4314
 z = 126.61
 z = 59.6063
 z = 90.5545
 z = 50.3915
 z = 66.3184
 z = 41.4381
 z = 49.9874
 z = 33.8553
 z = 38.7258
 z = 27.775
 z = 30.7233
 z = 22.9783
 z = 24.8637
 z = 19.1906
Solving chemistry
diagonal:  Solving for rho, Initial residual = 0, Final residual = 0, No Iterations 0
DILUPBiCG:  Solving for Ux, Initial residual = 3.61478e-05, Final residual = 9.67999e-12, No Iterations 1
DILUPBiCG:  Solving for Uy, Initial residual = 0.000352256, Final residual = 1.34079e-13, No Iterations 1
DILUPBiCG:  Solving for Uz, Initial residual = 1.67464e-05, Final residual = 3.14201e-12, No Iterations 1
DILUPBiCG:  Solving for iC3H8O, Initial residual = 7.98776e-05, Final residual = 1.25024e-13, No Iterations 1
DILUPBiCG:  Solving for O2, Initial residual = 7.98776e-05, Final residual = 1.25244e-13, No Iterations 1
DILUPBiCG:  Solving for CO2, Initial residual = 0, Final residual = 0, No Iterations 0
DILUPBiCG:  Solving for H2O, Initial residual = 0, Final residual = 0, No Iterations 0
DILUPBiCG:  Solving for hs, Initial residual = 0.000126701, Final residual = 1.42758e-13, No Iterations 1
DICPCG:  Solving for pd, Initial residual = 0.0483853, Final residual = 8.4837e-10, No Iterations 192
diagonal:  Solving for rho, Initial residual = 0, Final residual = 0, No Iterations 0
time step continuity errors : sum local = 2.04682e-16, global = -2.17605e-17, cumulative = -3.17717e-16
DICPCG:  Solving for pd, Initial residual = 0.000327403, Final residual = 7.92611e-10, No Iterations 172
diagonal:  Solving for rho, Initial residual = 0, Final residual = 0, No Iterations 0
time step continuity errors : sum local = 2.1199e-16, global = -2.10064e-17, cumulative = -3.38724e-16
DILUPBiCG:  Solving for epsilon, Initial residual = 1.34452e-06, Final residual = 3.43295e-13, No Iterations 1
DILUPBiCG:  Solving for k, Initial residual = 1.49423e-06, Final residual = 3.02126e-13, No Iterations 1

Number of parcels in system.... | 8
Injected liquid mass........... | 0.00664 mg
Liquid Mass in system.......... | 0.00634118 mg
SMD, Dmax...................... | 15.4809 mu, 35.6942 mu
Added gas mass................. | 0.000212318 mg
Evaporation Continuity Error... | -8.65036e-05 mg
ExecutionTime = 3.06 s  ClockTime = 3 s
T max/min : 373 367.309
rho max/min : 0.983841 0.930272
pd max/min : 102753 100000

Courant Number mean: 4.35404e-05 max: 0.00336731
 MassFlows:   inlet = -0.000291  outlet = 0.000291175
Time = 9e-06

Evolving Spray
 z = 7.74698e-19
 z = 7.74737e-19
 z = 7.74723e-19
 z = 7.74762e-19
 z = 7.74748e-19
 z = 7.74787e-19
 z = 7.74773e-19
 z = 7.74812e-19
 z = 7.74798e-19
 z = 7.74837e-19
 z = 7.74823e-19
 z = 7.74862e-19
 z = 7.74848e-19
 z = 7.74887e-19
 z = 7.74873e-19
 z = 7.74912e-19
 z = 7.74898e-19
 z = 7.74937e-19
 z = 7.74923e-19
 z = 7.74962e-19
 z = 1.2294e-18
 z = 1.22944e-18
 z = 1.22943e-18
 z = 1.22947e-18
 z = 1.22946e-18
 z = 1.2295e-18
 z = 1.22949e-18
 z = 1.22953e-18
 z = 1.22952e-18
 z = 1.22957e-18
 z = 1.22956e-18
 z = 1.2296e-18
 z = 1.22959e-18
 z = 1.22963e-18
 z = 1.22962e-18
 z = 1.22966e-18
 z = 1.22965e-18
 z = 1.22969e-18
 z = 1.22968e-18
 z = 1.22972e-18
 z = 4.76158e-19
 z = 4.76193e-19
 z = 4.76179e-19
 z = 4.76215e-19
 z = 4.76201e-19
 z = 4.76237e-19
 z = 4.76223e-19
 z = 4.76258e-19
 z = 4.76244e-19
 z = 4.7628e-19
 z = 4.76266e-19
 z = 4.76302e-19
 z = 4.76288e-19
 z = 4.76323e-19
 z = 4.76309e-19
 z = 4.76345e-19
 z = 4.76331e-19
 z = 4.76367e-19
 z = 4.76353e-19
 z = 4.76388e-19
 z = 488.654
 z = 4.09205e-20
 z = 490.233
 z = 4.09069e-20
 z = 491.805
 z = 4.08934e-20
 z = 493.369
 z = 4.088e-20
 z = 494.926
 z = 4.08669e-20
 z = 496.475
 z = 4.08538e-20
 z = 498.016
 z = 4.0841e-20
 z = 499.55
 z = 4.08282e-20
 z = 501.077
 z = 4.08157e-20
 z = 502.596
 z = 4.08033e-20
 z = 1.3304e-18
 z = 1.33044e-18
 z = 1.33043e-18
 z = 1.33047e-18
 z = 1.33047e-18
 z = 1.3305e-18
 z = 1.3305e-18
 z = 1.33054e-18
 z = 1.33053e-18
 z = 1.33057e-18
 z = 1.33056e-18
 z = 1.3306e-18
 z = 1.33059e-18
 z = 1.33063e-18
 z = 1.33063e-18
 z = 1.33067e-18
 z = 1.33066e-18
 z = 1.3307e-18
 z = 1.33069e-18
 z = 1.33073e-18
 z = 384.565
 z = 1.90718e-19
 z = 385.283
 z = 1.90681e-19
 z = 386.003
 z = 1.90645e-19
 z = 386.723
 z = 1.90609e-19
 z = 387.444
 z = 1.90572e-19
 z = 388.167
 z = 1.90536e-19
 z = 388.89
 z = 1.90499e-19
 z = 389.614
 z = 1.90463e-19
 z = 390.34
 z = 1.90426e-19
 z = 391.066
 z = 1.9039e-19
 z = 392.473
 z = 1.43423e-19
 z = 393.443
 z = 1.43381e-19
 z = 394.416
 z = 1.43338e-19
 z = 395.39
 z = 1.43295e-19
 z = 396.366
 z = 1.43252e-19
 z = 397.344
 z = 1.43209e-19
 z = 398.323
 z = 1.43167e-19
 z = 399.305
 z = 1.43124e-19
 z = 400.288
 z = 1.43081e-19
 z = 401.273
 z = 1.43039e-19
 z = 10.5918
 z = 8.54008
 z = 8.93529
 z = 7.27697
 z = 7.58385
 z = 6.22765
 z = 6.47002
 z = 5.34982
 z = 5.54408
 z = 4.61096
 z = 4.76865
 z = 3.98579
 z = 4.11522
 z = 3.45443
 z = 3.56168
 z = 3.00105
 z = 3.09064
 z = 2.61293
 z = 2.68828
 z = 2.27971
 z = 380.497
 z = 1.1846e-19
 z = 381.606
 z = 1.18402e-19
 z = 382.709
 z = 1.18345e-19
 z = 383.815
 z = 1.18288e-19
 z = 384.923
 z = 1.18231e-19
 z = 386.034
 z = 1.18174e-19
 z = 387.147
 z = 1.18118e-19
 z = 388.263
 z = 1.18061e-19
 z = 389.38
 z = 1.18005e-19
 z = 390.501
 z = 1.17949e-19
Solving chemistry
diagonal:  Solving for rho, Initial residual = 0, Final residual = 0, No Iterations 0
DILUPBiCG:  Solving for Ux, Initial residual = 0.000204674, Final residual = 5.52852e-11, No Iterations 1
DILUPBiCG:  Solving for Uy, Initial residual = 0.000350694, Final residual = 1.06632e-13, No Iterations 1
DILUPBiCG:  Solving for Uz, Initial residual = 0.000132102, Final residual = 3.05661e-11, No Iterations 1
DILUPBiCG:  Solving for iC3H8O, Initial residual = 8.34796e-06, Final residual = 2.80426e-13, No Iterations 1
DILUPBiCG:  Solving for O2, Initial residual = 8.34797e-06, Final residual = 2.83453e-13, No Iterations 1
DILUPBiCG:  Solving for CO2, Initial residual = 0, Final residual = 0, No Iterations 0
DILUPBiCG:  Solving for H2O, Initial residual = 0, Final residual = 0, No Iterations 0
DILUPBiCG:  Solving for hs, Initial residual = 0.000106845, Final residual = 3.45393e-13, No Iterations 1
DICPCG:  Solving for pd, Initial residual = 0.0170458, Final residual = 9.6123e-10, No Iterations 190
diagonal:  Solving for rho, Initial residual = 0, Final residual = 0, No Iterations 0
time step continuity errors : sum local = 2.27131e-16, global = -2.1226e-17, cumulative = -3.5995e-16
DICPCG:  Solving for pd, Initial residual = 0.000534701, Final residual = 8.4678e-10, No Iterations 175
diagonal:  Solving for rho, Initial residual = 0, Final residual = 0, No Iterations 0
time step continuity errors : sum local = 2.2126e-16, global = -2.24615e-17, cumulative = -3.82411e-16
DILUPBiCG:  Solving for epsilon, Initial residual = 1.35512e-06, Final residual = 2.53359e-13, No Iterations 1
DILUPBiCG:  Solving for k, Initial residual = 1.49307e-06, Final residual = 3.02525e-13, No Iterations 1

Number of parcels in system.... | 9
Injected liquid mass........... | 0.00747 mg
Liquid Mass in system.......... | 0.00716689 mg
SMD, Dmax...................... | 14.6827 mu, 35.6945 mu
Added gas mass................. | 0.000220976 mg
Evaporation Continuity Error... | -8.21391e-05 mg
ExecutionTime = 3.39 s  ClockTime = 4 s
T max/min : 373 366.767
rho max/min : 0.985757 0.930272
pd max/min : 100000 96874.7

Courant Number mean: 4.35566e-05 max: 0.00500932
 MassFlows:   inlet = -0.000291  outlet = 0.000290939
Time = 1e-05

Evolving Spray
 z = 7.72866e-19
 z = 7.72905e-19
 z = 7.72885e-19
 z = 7.72924e-19
 z = 7.72905e-19
 z = 7.72944e-19
 z = 7.72925e-19
 z = 7.72964e-19
 z = 7.72945e-19
 z = 7.72984e-19
 z = 7.72965e-19
 z = 7.73004e-19
 z = 7.72985e-19
 z = 7.73024e-19
 z = 7.73004e-19
 z = 7.73043e-19
 z = 7.73024e-19
 z = 7.73063e-19
 z = 7.73044e-19
 z = 7.73083e-19
 z = 1.22626e-18
 z = 1.2263e-18
 z = 1.22628e-18
 z = 1.22632e-18
 z = 1.2263e-18
 z = 1.22634e-18
 z = 1.22632e-18
 z = 1.22637e-18
 z = 1.22635e-18
 z = 1.22639e-18
 z = 1.22637e-18
 z = 1.22641e-18
 z = 1.22639e-18
 z = 1.22643e-18
 z = 1.22641e-18
 z = 1.22645e-18
 z = 1.22643e-18
 z = 1.22647e-18
 z = 1.22645e-18
 z = 1.22649e-18
 z = 4.75251e-19
 z = 4.75287e-19
 z = 4.7527e-19
 z = 4.75305e-19
 z = 4.75288e-19
 z = 4.75324e-19
 z = 4.75307e-19
 z = 4.75343e-19
 z = 4.75326e-19
 z = 4.75362e-19
 z = 4.75344e-19
 z = 4.7538e-19
 z = 4.75363e-19
 z = 4.75399e-19
 z = 4.75382e-19
 z = 4.75418e-19
 z = 4.75401e-19
 z = 4.75436e-19
 z = 4.75419e-19
 z = 4.75455e-19
 z = 500.736
 z = 4.07571e-20
 z = 502.229
 z = 4.0745e-20
 z = 503.714
 z = 4.0733e-20
 z = 505.192
 z = 4.07211e-20
 z = 506.663
 z = 4.07095e-20
 z = 508.126
 z = 4.06979e-20
 z = 509.582
 z = 4.06865e-20
 z = 511.03
 z = 4.06753e-20
 z = 512.471
 z = 4.06641e-20
 z = 513.905
 z = 4.06532e-20
 z = 1.32723e-18
 z = 1.32727e-18
 z = 1.32726e-18
 z = 1.32729e-18
 z = 1.32728e-18
 z = 1.32732e-18
 z = 1.3273e-18
 z = 1.32734e-18
 z = 1.32732e-18
 z = 1.32736e-18
 z = 1.32734e-18
 z = 1.32738e-18
 z = 1.32737e-18
 z = 1.32741e-18
 z = 1.32739e-18
 z = 1.32743e-18
 z = 1.32741e-18
 z = 1.32745e-18
 z = 1.32743e-18
 z = 1.32747e-18
 z = 388.933
 z = 1.90141e-19
 z = 389.652
 z = 1.90104e-19
 z = 390.372
 z = 1.90067e-19
 z = 391.094
 z = 1.9003e-19
 z = 391.816
 z = 1.89992e-19
 z = 392.539
 z = 1.89955e-19
 z = 393.263
 z = 1.89917e-19
 z = 393.988
 z = 1.8988e-19
 z = 394.715
 z = 1.89843e-19
 z = 395.442
 z = 1.89805e-19
 z = 399.36
 z = 1.42863e-19
 z = 400.337
 z = 1.4282e-19
 z = 401.316
 z = 1.42777e-19
 z = 402.297
 z = 1.42734e-19
 z = 403.279
 z = 1.42691e-19
 z = 404.263
 z = 1.42649e-19
 z = 405.249
 z = 1.42606e-19
 z = 406.237
 z = 1.42563e-19
 z = 407.227
 z = 1.4252e-19
 z = 408.218
 z = 1.42477e-19
 z = 1.59501
 z = 1.36197
 z = 1.39799
 z = 1.19683
 z = 1.22778
 z = 1.05387
 z = 1.08051
 z = 0.929969
 z = 0.952948
 z = 0.822482
 z = 0.842335
 z = 0.729156
 z = 0.746332
 z = 0.648066
 z = 0.662944
 z = 0.577562
 z = 0.590463
 z = 0.516228
 z = 0.527425
 z = 0.462845
 z = 388.831
 z = 1.17816e-19
 z = 389.992
 z = 1.17776e-19
 z = 391.155
 z = 1.17736e-19
 z = 392.321
 z = 1.17696e-19
 z = 393.489
 z = 1.17656e-19
 z = 394.66
 z = 1.17616e-19
 z = 395.833
 z = 1.17576e-19
 z = 397.008
 z = 1.17537e-19
 z = 398.186
 z = 1.17498e-19
 z = 399.367
 z = 1.17459e-19
 z = 264.898
 z = 156.488
 z = 195.966
 z = 129.277
 z = 150.064
 z = 106.812
 z = 118.528
 z = 89.0345
 z = 96.0861
 z = 75.0816
 z = 79.5765
 z = 64.0621
 z = 67.07
 z = 55.2573
 z = 57.3539
 z = 48.1284
 z = 49.6406
 z = 42.2804
 z = 43.4029
 z = 37.4236
Solving chemistry
diagonal:  Solving for rho, Initial residual = 0, Final residual = 0, No Iterations 0
DILUPBiCG:  Solving for Ux, Initial residual = 0.000219794, Final residual = 5.84375e-11, No Iterations 1
DILUPBiCG:  Solving for Uy, Initial residual = 0.000123328, Final residual = 3.68941e-14, No Iterations 1
DILUPBiCG:  Solving for Uz, Initial residual = 0.000142394, Final residual = 3.23566e-11, No Iterations 1
DILUPBiCG:  Solving for iC3H8O, Initial residual = 4.89776e-05, Final residual = 1.20242e-13, No Iterations 1
DILUPBiCG:  Solving for O2, Initial residual = 4.89776e-05, Final residual = 1.20967e-13, No Iterations 1
DILUPBiCG:  Solving for CO2, Initial residual = 0, Final residual = 0, No Iterations 0
DILUPBiCG:  Solving for H2O, Initial residual = 0, Final residual = 0, No Iterations 0
DILUPBiCG:  Solving for hs, Initial residual = 9.66549e-05, Final residual = 1.3824e-13, No Iterations 1
DICPCG:  Solving for pd, Initial residual = 0.0146725, Final residual = 7.7482e-10, No Iterations 190
diagonal:  Solving for rho, Initial residual = 0, Final residual = 0, No Iterations 0
time step continuity errors : sum local = 2.28792e-16, global = -2.22096e-17, cumulative = -4.04621e-16
DICPCG:  Solving for pd, Initial residual = 0.000687607, Final residual = 9.64004e-10, No Iterations 175
diagonal:  Solving for rho, Initial residual = 0, Final residual = 0, No Iterations 0
time step continuity errors : sum local = 2.16421e-16, global = -2.23314e-17, cumulative = -4.26952e-16
DILUPBiCG:  Solving for epsilon, Initial residual = 1.35774e-06, Final residual = 3.15251e-13, No Iterations 1
DILUPBiCG:  Solving for k, Initial residual = 1.49234e-06, Final residual = 3.0221e-13, No Iterations 1

Number of parcels in system.... | 10
Injected liquid mass........... | 0.0083 mg
Liquid Mass in system.......... | 0.00796466 mg
SMD, Dmax...................... | 15.7698 mu, 47.0819 mu
Added gas mass................. | 0.000245863 mg
Evaporation Continuity Error... | -8.94813e-05 mg
ExecutionTime = 3.72 s  ClockTime = 4 s
T max/min : 373 365.919
rho max/min : 0.992081 0.930272
pd max/min : 102001 100000

Courant Number mean: 4.35452e-05 max: 0.00623245
 MassFlows:   inlet = -0.000291  outlet = 0.000291102
Time = 1.1e-05

Evolving Spray
 z = 7.7542e-19
 z = 7.75459e-19
 z = 7.75445e-19
 z = 7.75484e-19
 z = 7.7547e-19
 z = 7.75508e-19
 z = 7.75494e-19
 z = 7.75533e-19
 z = 7.75519e-19
 z = 7.75558e-19
 z = 7.75544e-19
 z = 7.75583e-19
 z = 7.75569e-19
 z = 7.75608e-19
 z = 7.75594e-19
 z = 7.75632e-19
 z = 7.75618e-19
 z = 7.75657e-19
 z = 7.75643e-19
 z = 7.75682e-19
 z = 1.23024e-18
 z = 1.23028e-18
 z = 1.23027e-18
 z = 1.23031e-18
 z = 1.2303e-18
 z = 1.23034e-18
 z = 1.23033e-18
 z = 1.23037e-18
 z = 1.23036e-18
 z = 1.2304e-18
 z = 1.23039e-18
 z = 1.23043e-18
 z = 1.23042e-18
 z = 1.23046e-18
 z = 1.23045e-18
 z = 1.23049e-18
 z = 1.23048e-18
 z = 1.23052e-18
 z = 1.23051e-18
 z = 1.23055e-18
 z = 4.76773e-19
 z = 4.76808e-19
 z = 4.76794e-19
 z = 4.7683e-19
 z = 4.76816e-19
 z = 4.76852e-19
 z = 4.76838e-19
 z = 4.76873e-19
 z = 4.76859e-19
 z = 4.76895e-19
 z = 4.76881e-19
 z = 4.76916e-19
 z = 4.76902e-19
 z = 4.76938e-19
 z = 4.76924e-19
 z = 4.76959e-19
 z = 4.76945e-19
 z = 4.76981e-19
 z = 4.76967e-19
 z = 4.77002e-19
 z = 491.906
 z = 4.10827e-20
 z = 493.444
 z = 4.10696e-20
 z = 494.975
 z = 4.10566e-20
 z = 496.498
 z = 4.10438e-20
 z = 498.014
 z = 4.10312e-20
 z = 499.522
 z = 4.10187e-20
 z = 501.022
 z = 4.10064e-20
 z = 502.515
 z = 4.09942e-20
 z = 504
 z = 4.09821e-20
 z = 505.477
 z = 4.09703e-20
 z = 1.33125e-18
 z = 1.33129e-18
 z = 1.33129e-18
 z = 1.33133e-18
 z = 1.33132e-18
 z = 1.33136e-18
 z = 1.33135e-18
 z = 1.33139e-18
 z = 1.33138e-18
 z = 1.33142e-18
 z = 1.33141e-18
 z = 1.33145e-18
 z = 1.33144e-18
 z = 1.33148e-18
 z = 1.33148e-18
 z = 1.33151e-18
 z = 1.33151e-18
 z = 1.33155e-18
 z = 1.33154e-18
 z = 1.33158e-18
 z = 376.808
 z = 1.91782e-19
 z = 377.511
 z = 1.91746e-19
 z = 378.216
 z = 1.9171e-19
 z = 378.921
 z = 1.91675e-19
 z = 379.628
 z = 1.91639e-19
 z = 380.335
 z = 1.91603e-19
 z = 381.044
 z = 1.91566e-19
 z = 381.753
 z = 1.9153e-19
 z = 382.463
 z = 1.91494e-19
 z = 383.175
 z = 1.91458e-19
 z = 389.226
 z = 1.44011e-19
 z = 390.186
 z = 1.43968e-19
 z = 391.148
 z = 1.43925e-19
 z = 392.112
 z = 1.43882e-19
 z = 393.077
 z = 1.43839e-19
 z = 394.044
 z = 1.43796e-19
 z = 395.013
 z = 1.43753e-19
 z = 395.984
 z = 1.4371e-19
 z = 396.956
 z = 1.43667e-19
 z = 397.93
 z = 1.43625e-19
 z = 8.66784e-19
 z = 8.6682e-19
 z = 8.66811e-19
 z = 8.66847e-19
 z = 8.66838e-19
 z = 8.66874e-19
 z = 8.66865e-19
 z = 8.66901e-19
 z = 8.66892e-19
 z = 8.66928e-19
 z = 8.66919e-19
 z = 8.66955e-19
 z = 8.66946e-19
 z = 8.66982e-19
 z = 8.66973e-19
 z = 8.67009e-19
 z = 8.67e-19
 z = 8.67036e-19
 z = 8.67027e-19
 z = 8.67063e-19
 z = 380.427
 z = 1.18629e-19
 z = 381.572
 z = 1.18588e-19
 z = 382.719
 z = 1.18546e-19
 z = 383.869
 z = 1.18505e-19
 z = 385.022
 z = 1.18463e-19
 z = 386.176
 z = 1.18422e-19
 z = 387.334
 z = 1.18381e-19
 z = 388.493
 z = 1.18341e-19
 z = 389.655
 z = 1.183e-19
 z = 390.82
 z = 1.18259e-19
 z = 30.3698
 z = 26.6245
 z = 27.1055
 z = 23.9263
 z = 24.3159
 z = 21.5918
 z = 21.9114
 z = 19.5578
 z = 19.823
 z = 17.7745
 z = 17.9969
 z = 16.2021
 z = 16.3903
 z = 14.8085
 z = 14.9691
 z = 13.5677
 z = 13.7057
 z = 12.4582
 z = 12.5776
 z = 11.4622
 z = 317.192
 z = 3.87805e-19
 z = 317.476
 z = 3.87776e-19
 z = 317.759
 z = 3.87747e-19
 z = 318.043
 z = 3.87719e-19
 z = 318.327
 z = 3.8769e-19
 z = 318.611
 z = 3.87661e-19
 z = 318.896
 z = 3.87632e-19
 z = 319.18
 z = 3.87604e-19
 z = 319.465
 z = 3.87575e-19
 z = 319.75
 z = 3.87546e-19
Solving chemistry
diagonal:  Solving for rho, Initial residual = 0, Final residual = 0, No Iterations 0
DILUPBiCG:  Solving for Ux, Initial residual = 0.000154625, Final residual = 4.22174e-11, No Iterations 1
DILUPBiCG:  Solving for Uy, Initial residual = 4.8065e-05, Final residual = 3.83915e-14, No Iterations 1
DILUPBiCG:  Solving for Uz, Initial residual = 9.89987e-05, Final residual = 2.24727e-11, No Iterations 1
DILUPBiCG:  Solving for iC3H8O, Initial residual = 1.03834e-05, Final residual = 2.20102e-13, No Iterations 1
DILUPBiCG:  Solving for O2, Initial residual = 1.03834e-05, Final residual = 2.45354e-13, No Iterations 1
DILUPBiCG:  Solving for CO2, Initial residual = 0, Final residual = 0, No Iterations 0
DILUPBiCG:  Solving for H2O, Initial residual = 0, Final residual = 0, No Iterations 0
DILUPBiCG:  Solving for hs, Initial residual = 7.93261e-05, Final residual = 2.56945e-13, No Iterations 1
DICPCG:  Solving for pd, Initial residual = 0.0159368, Final residual = 7.37797e-10, No Iterations 190
diagonal:  Solving for rho, Initial residual = 0, Final residual = 0, No Iterations 0
time step continuity errors : sum local = 2.20247e-16, global = -2.46701e-17, cumulative = -4.51622e-16
DICPCG:  Solving for pd, Initial residual = 0.000563411, Final residual = 9.89077e-10, No Iterations 174
diagonal:  Solving for rho, Initial residual = 0, Final residual = 0, No Iterations 0
time step continuity errors : sum local = 2.10726e-16, global = -2.52999e-17, cumulative = -4.76922e-16
DILUPBiCG:  Solving for epsilon, Initial residual = 1.36672e-06, Final residual = 2.68993e-13, No Iterations 1
DILUPBiCG:  Solving for k, Initial residual = 1.4913e-06, Final residual = 3.02418e-13, No Iterations 1

Number of parcels in system.... | 11
Injected liquid mass........... | 0.00913 mg
Liquid Mass in system.......... | 0.00878789 mg
SMD, Dmax...................... | 16.0122 mu, 46.9005 mu
Added gas mass................. | 0.000256125 mg
Evaporation Continuity Error... | -8.59898e-05 mg
ExecutionTime = 4.06 s  ClockTime = 4 s
T max/min : 373 365.329
rho max/min : 0.99445 0.930272
pd max/min : 100000 97992.8

Courant Number mean: 4.35555e-05 max: 0.00680303
 MassFlows:   inlet = -0.000291  outlet = 0.000290952
Time = 1.2e-05

Evolving Spray
 z = 7.74546e-19
 z = 7.74585e-19
 z = 7.74568e-19
 z = 7.74607e-19
 z = 7.7459e-19
 z = 7.74628e-19
 z = 7.74611e-19
 z = 7.7465e-19
 z = 7.74633e-19
 z = 7.74672e-19
 z = 7.74655e-19
 z = 7.74694e-19
 z = 7.74677e-19
 z = 7.74716e-19
 z = 7.74699e-19
 z = 7.74738e-19
 z = 7.74721e-19
 z = 7.74759e-19
 z = 7.74742e-19
 z = 7.74781e-19
 z = 1.22867e-18
 z = 1.22871e-18
 z = 1.22869e-18
 z = 1.22873e-18
 z = 1.22872e-18
 z = 1.22876e-18
 z = 1.22874e-18
 z = 1.22878e-18
 z = 1.22876e-18
 z = 1.22881e-18
 z = 1.22879e-18
 z = 1.22883e-18
 z = 1.22881e-18
 z = 1.22886e-18
 z = 1.22884e-18
 z = 1.22888e-18
 z = 1.22886e-18
 z = 1.22891e-18
 z = 1.22889e-18
 z = 1.22893e-18
 z = 4.76392e-19
 z = 4.76428e-19
 z = 4.76412e-19
 z = 4.76448e-19
 z = 4.76432e-19
 z = 4.76467e-19
 z = 4.76452e-19
 z = 4.76487e-19
 z = 4.76472e-19
 z = 4.76507e-19
 z = 4.76492e-19
 z = 4.76527e-19
 z = 4.76511e-19
 z = 4.76547e-19
 z = 4.76531e-19
 z = 4.76567e-19
 z = 4.76551e-19
 z = 4.76587e-19
 z = 4.76571e-19
 z = 4.76606e-19
 z = 502.012
 z = 4.09868e-20
 z = 503.473
 z = 4.09751e-20
 z = 504.927
 z = 4.09635e-20
 z = 506.373
 z = 4.0952e-20
 z = 507.812
 z = 4.09407e-20
 z = 509.243
 z = 4.09296e-20
 z = 510.666
 z = 4.09185e-20
 z = 512.082
 z = 4.09077e-20
 z = 513.491
 z = 4.0897e-20
 z = 514.892
 z = 4.08864e-20
 z = 1.32966e-18
 z = 1.3297e-18
 z = 1.32969e-18
 z = 1.32973e-18
 z = 1.32971e-18
 z = 1.32975e-18
 z = 1.32974e-18
 z = 1.32978e-18
 z = 1.32977e-18
 z = 1.3298e-18
 z = 1.32979e-18
 z = 1.32983e-18
 z = 1.32982e-18
 z = 1.32986e-18
 z = 1.32984e-18
 z = 1.32988e-18
 z = 1.32987e-18
 z = 1.32991e-18
 z = 1.32989e-18
 z = 1.32993e-18
 z = 379.789
 z = 1.91512e-19
 z = 380.492
 z = 1.91476e-19
 z = 381.196
 z = 1.91439e-19
 z = 381.9
 z = 1.91403e-19
 z = 382.606
 z = 1.91366e-19
 z = 383.313
 z = 1.9133e-19
 z = 384.021
 z = 1.91294e-19
 z = 384.729
 z = 1.91257e-19
 z = 385.439
 z = 1.91221e-19
 z = 386.149
 z = 1.91184e-19
 z = 394.693
 z = 1.43676e-19
 z = 395.657
 z = 1.43633e-19
 z = 396.623
 z = 1.4359e-19
 z = 397.59
 z = 1.43547e-19
 z = 398.56
 z = 1.43504e-19
 z = 399.53
 z = 1.43461e-19
 z = 400.503
 z = 1.43418e-19
 z = 401.477
 z = 1.43375e-19
 z = 402.454
 z = 1.43333e-19
 z = 403.431
 z = 1.4329e-19
 z = 8.66015e-19
 z = 8.66051e-19
 z = 8.66039e-19
 z = 8.66075e-19
 z = 8.66062e-19
 z = 8.66098e-19
 z = 8.66086e-19
 z = 8.66122e-19
 z = 8.6611e-19
 z = 8.66145e-19
 z = 8.66133e-19
 z = 8.66169e-19
 z = 8.66157e-19
 z = 8.66192e-19
 z = 8.6618e-19
 z = 8.66216e-19
 z = 8.66204e-19
 z = 8.6624e-19
 z = 8.66228e-19
 z = 8.66263e-19
 z = 387.782
 z = 1.18295e-19
 z = 388.936
 z = 1.18254e-19
 z = 390.093
 z = 1.18213e-19
 z = 391.252
 z = 1.18173e-19
 z = 392.413
 z = 1.18133e-19
 z = 393.577
 z = 1.18092e-19
 z = 394.743
 z = 1.18052e-19
 z = 395.912
 z = 1.18012e-19
 z = 397.083
 z = 1.17973e-19
 z = 398.256
 z = 1.17933e-19
 z = 10.237
 z = 9.36067
 z = 9.43915
 z = 8.64727
 z = 8.7167
 z = 7.99902
 z = 8.06072
 z = 7.40855
 z = 7.46358
 z = 6.86949
 z = 6.91876
 z = 6.37636
 z = 6.42062
 z = 5.92438
 z = 5.96427
 z = 5.5094
 z = 5.54545
 z = 5.12777
 z = 5.16044
 z = 4.7763
 z = 316.46
 z = 3.87505e-19
 z = 316.757
 z = 3.87498e-19
 z = 317.055
 z = 3.87491e-19
 z = 317.353
 z = 3.87484e-19
 z = 317.651
 z = 3.87477e-19
 z = 317.949
 z = 3.8747e-19
 z = 318.247
 z = 3.87462e-19
 z = 318.546
 z = 3.87455e-19
 z = 318.845
 z = 3.87448e-19
 z = 319.144
 z = 3.87441e-19
 z = 302.85
 z = 1.86549
 z = 298.534
 z = 2.44383
 z = 292.91
 z = 3.20672
 z = 285.626
 z = 4.20993
 z = 276.262
 z = 5.52261
 z = 264.338
 z = 7.22612
 z = 249.347
 z = 9.40577
 z = 230.837
 z = 12.126
 z = 208.555
 z = 15.3752
 z = 182.69
 z = 18.9681
Solving chemistry
diagonal:  Solving for rho, Initial residual = 0, Final residual = 0, No Iterations 0
DILUPBiCG:  Solving for Ux, Initial residual = 0.000143203, Final residual = 3.80365e-11, No Iterations 1
DILUPBiCG:  Solving for Uy, Initial residual = 9.97268e-05, Final residual = 1.98963e-14, No Iterations 1
DILUPBiCG:  Solving for Uz, Initial residual = 9.06958e-05, Final residual = 2.07409e-11, No Iterations 1
DILUPBiCG:  Solving for iC3H8O, Initial residual = 2.03472e-05, Final residual = 1.07225e-13, No Iterations 1
DILUPBiCG:  Solving for O2, Initial residual = 2.03472e-05, Final residual = 1.08222e-13, No Iterations 1
DILUPBiCG:  Solving for CO2, Initial residual = 0, Final residual = 0, No Iterations 0
DILUPBiCG:  Solving for H2O, Initial residual = 0, Final residual = 0, No Iterations 0
DILUPBiCG:  Solving for hs, Initial residual = 6.73928e-05, Final residual = 1.22351e-13, No Iterations 1
DICPCG:  Solving for pd, Initial residual = 0.0125386, Final residual = 8.25223e-10, No Iterations 189
diagonal:  Solving for rho, Initial residual = 0, Final residual = 0, No Iterations 0
time step continuity errors : sum local = 2.13038e-16, global = -2.24729e-17, cumulative = -4.99395e-16
DICPCG:  Solving for pd, Initial residual = 0.000905656, Final residual = 9.4093e-10, No Iterations 176
diagonal:  Solving for rho, Initial residual = 0, Final residual = 0, No Iterations 0
time step continuity errors : sum local = 1.96452e-16, global = -2.26328e-17, cumulative = -5.22028e-16
DILUPBiCG:  Solving for epsilon, Initial residual = 1.37142e-06, Final residual = 2.89953e-13, No Iterations 1
DILUPBiCG:  Solving for k, Initial residual = 1.49042e-06, Final residual = 3.02303e-13, No Iterations 1

Number of parcels in system.... | 12
Injected liquid mass........... | 0.00996 mg
Liquid Mass in system.......... | 0.00960269 mg
SMD, Dmax...................... | 16.3844 mu, 46.8312 mu
Added gas mass................. | 0.000270645 mg
Evaporation Continuity Error... | -8.66697e-05 mg
ExecutionTime = 4.4 s  ClockTime = 5 s
T max/min : 373 364.672
rho max/min : 0.998079 0.930272
pd max/min : 100645 100000

Courant Number mean: 4.35514e-05 max: 0.0054684
 MassFlows:   inlet = -0.000291  outlet = 0.000291009
Time = 1.3e-05

Evolving Spray
 z = 7.75934e-19
 z = 7.75973e-19
 z = 7.75958e-19
 z = 7.75996e-19
 z = 7.75981e-19
 z = 7.7602e-19
 z = 7.76005e-19
 z = 7.76044e-19
 z = 7.76029e-19
 z = 7.76068e-19
 z = 7.76053e-19
 z = 7.76092e-19
 z = 7.76077e-19
 z = 7.76115e-19
 z = 7.761e-19
 z = 7.76139e-19
 z = 7.76124e-19
 z = 7.76163e-19
 z = 7.76148e-19
 z = 7.76187e-19
 z = 1.23078e-18
 z = 1.23082e-18
 z = 1.23081e-18
 z = 1.23085e-18
 z = 1.23084e-18
 z = 1.23088e-18
 z = 1.23087e-18
 z = 1.23091e-18
 z = 1.23089e-18
 z = 1.23093e-18
 z = 1.23092e-18
 z = 1.23096e-18
 z = 1.23095e-18
 z = 1.23099e-18
 z = 1.23098e-18
 z = 1.23102e-18
 z = 1.23101e-18
 z = 1.23105e-18
 z = 1.23104e-18
 z = 1.23108e-18
 z = 4.77263e-19
 z = 4.77298e-19
 z = 4.77284e-19
 z = 4.77319e-19
 z = 4.77305e-19
 z = 4.7734e-19
 z = 4.77326e-19
 z = 4.77361e-19
 z = 4.77347e-19
 z = 4.77382e-19
 z = 4.77368e-19
 z = 4.77403e-19
 z = 4.77389e-19
 z = 4.77424e-19
 z = 4.7741e-19
 z = 4.77445e-19
 z = 4.77431e-19
 z = 4.77466e-19
 z = 4.77452e-19
 z = 4.77487e-19
 z = 505.53
 z = 4.10852e-20
 z = 506.958
 z = 4.10741e-20
 z = 508.379
 z = 4.1063e-20
 z = 509.793
 z = 4.10521e-20
 z = 511.199
 z = 4.10414e-20
 z = 512.597
 z = 4.10308e-20
 z = 513.989
 z = 4.10204e-20
 z = 515.372
 z = 4.10101e-20
 z = 516.749
 z = 4.09999e-20
 z = 518.117
 z = 4.09899e-20
 z = 1.33181e-18
 z = 1.33185e-18
 z = 1.33184e-18
 z = 1.33188e-18
 z = 1.33187e-18
 z = 1.33191e-18
 z = 1.3319e-18
 z = 1.33194e-18
 z = 1.33193e-18
 z = 1.33197e-18
 z = 1.33196e-18
 z = 1.332e-18
 z = 1.33199e-18
 z = 1.33203e-18
 z = 1.33202e-18
 z = 1.33206e-18
 z = 1.33205e-18
 z = 1.33209e-18
 z = 1.33208e-18
 z = 1.33212e-18
 z = 378.032
 z = 1.921e-19
 z = 378.73
 z = 1.92064e-19
 z = 379.429
 z = 1.92028e-19
 z = 380.129
 z = 1.91993e-19
 z = 380.83
 z = 1.91957e-19
 z = 381.532
 z = 1.91921e-19
 z = 382.234
 z = 1.91885e-19
 z = 382.938
 z = 1.9185e-19
 z = 383.643
 z = 1.91814e-19
 z = 384.348
 z = 1.91778e-19
 z = 395.257
 z = 1.43993e-19
 z = 396.219
 z = 1.4395e-19
 z = 397.183
 z = 1.43907e-19
 z = 398.148
 z = 1.43865e-19
 z = 399.114
 z = 1.43822e-19
 z = 400.083
 z = 1.43779e-19
 z = 401.053
 z = 1.43737e-19
 z = 402.025
 z = 1.43694e-19
 z = 402.998
 z = 1.43652e-19
 z = 403.974
 z = 1.43609e-19
 z = 8.6739e-19
 z = 8.67426e-19
 z = 8.67416e-19
 z = 8.67451e-19
 z = 8.67442e-19
 z = 8.67477e-19
 z = 8.67467e-19
 z = 8.67503e-19
 z = 8.67493e-19
 z = 8.67529e-19
 z = 8.67519e-19
 z = 8.67555e-19
 z = 8.67545e-19
 z = 8.67581e-19
 z = 8.67571e-19
 z = 8.67607e-19
 z = 8.67597e-19
 z = 8.67632e-19
 z = 8.67623e-19
 z = 8.67658e-19
 z = 390.169
 z = 1.18462e-19
 z = 391.325
 z = 1.18422e-19
 z = 392.483
 z = 1.18382e-19
 z = 393.643
 z = 1.18341e-19
 z = 394.806
 z = 1.18301e-19
 z = 395.971
 z = 1.18262e-19
 z = 397.138
 z = 1.18222e-19
 z = 398.308
 z = 1.18182e-19
 z = 399.48
 z = 1.18143e-19
 z = 400.655
 z = 1.18104e-19
 z = 1.81227
 z = 1.6855
 z = 1.69489
 z = 1.57715
 z = 1.58584
 z = 1.47643
 z = 1.48448
 z = 1.38277
 z = 1.39024
 z = 1.29566
 z = 1.30258
 z = 1.2146
 z = 1.22103
 z = 1.13916
 z = 1.14513
 z = 1.06893
 z = 1.07447
 z = 1.00353
 z = 1.00868
 z = 0.942612
 z = 311.569
 z = 3.88689e-19
 z = 311.863
 z = 3.88683e-19
 z = 312.157
 z = 3.88677e-19
 z = 312.451
 z = 3.88671e-19
 z = 312.745
 z = 3.88665e-19
 z = 313.039
 z = 3.88659e-19
 z = 313.334
 z = 3.88653e-19
 z = 313.628
 z = 3.88647e-19
 z = 313.923
 z = 3.88642e-19
 z = 314.218
 z = 3.88636e-19
 z = 147.998
 z = 21.2938
 z = 120.319
 z = 23.6645
 z = 93.8845
 z = 24.4501
 z = 70.7577
 z = 23.3557
 z = 52.1263
 z = 20.7698
 z = 38.0437
 z = 17.4793
 z = 27.8
 z = 14.1825
 z = 20.4625
 z = 11.2645
 z = 15.206
 z = 8.84723
 z = 11.4087
 z = 6.91277
 z = 227.102
 z = 164.559
 z = 180.84
 z = 137.798
 z = 147.702
 z = 116.798
 z = 123.171
 z = 100.181
 z = 104.481
 z = 86.8659
 z = 89.8842
 z = 76.0514
 z = 78.2413
 z = 67.1512
 z = 68.7851
 z = 59.7359
 z = 60.9844
 z = 53.4883
 z = 54.462
 z = 48.171
Solving chemistry
diagonal:  Solving for rho, Initial residual = 0, Final residual = 0, No Iterations 0
DILUPBiCG:  Solving for Ux, Initial residual = 6.05575e-05, Final residual = 1.68184e-11, No Iterations 1
DILUPBiCG:  Solving for Uy, Initial residual = 0.000136482, Final residual = 2.96155e-14, No Iterations 1
DILUPBiCG:  Solving for Uz, Initial residual = 3.56887e-05, Final residual = 6.31499e-12, No Iterations 1
DILUPBiCG:  Solving for iC3H8O, Initial residual = 6.59048e-05, Final residual = 1.51761e-13, No Iterations 1
DILUPBiCG:  Solving for O2, Initial residual = 6.59048e-05, Final residual = 1.52075e-13, No Iterations 1
DILUPBiCG:  Solving for CO2, Initial residual = 0, Final residual = 0, No Iterations 0
DILUPBiCG:  Solving for H2O, Initial residual = 0, Final residual = 0, No Iterations 0
DILUPBiCG:  Solving for hs, Initial residual = 6.64563e-05, Final residual = 1.59451e-13, No Iterations 1
DICPCG:  Solving for pd, Initial residual = 0.0254588, Final residual = 8.7604e-10, No Iterations 190
diagonal:  Solving for rho, Initial residual = 0, Final residual = 0, No Iterations 0
time step continuity errors : sum local = 2.03315e-16, global = -2.37334e-17, cumulative = -5.45761e-16
DICPCG:  Solving for pd, Initial residual = 0.000206426, Final residual = 9.01883e-10, No Iterations 170
diagonal:  Solving for rho, Initial residual = 0, Final residual = 0, No Iterations 0
time step continuity errors : sum local = 2.11469e-16, global = -2.27586e-17, cumulative = -5.6852e-16
DILUPBiCG:  Solving for epsilon, Initial residual = 1.37366e-06, Final residual = 3.37415e-13, No Iterations 1
DILUPBiCG:  Solving for k, Initial residual = 1.48982e-06, Final residual = 3.01791e-13, No Iterations 1

Number of parcels in system.... | 13
Injected liquid mass........... | 0.01079 mg
Liquid Mass in system.......... | 0.0103822 mg
SMD, Dmax...................... | 17.3292 mu, 59.1498 mu
Added gas mass................. | 0.000306536 mg
Evaporation Continuity Error... | -0.000101262 mg
ExecutionTime = 4.75 s  ClockTime = 5 s
T max/min : 373 363.671
rho max/min : 1.00716 0.930272
pd max/min : 102566 100000

Courant Number mean: 4.3538e-05 max: 0.00401089
 MassFlows:   inlet = -0.000291  outlet = 0.000291203
Time = 1.4e-05

Evolving Spray
 z = 7.79609e-19
 z = 7.79647e-19
 z = 7.7964e-19
 z = 7.79679e-19
 z = 7.79671e-19
 z = 7.7971e-19
 z = 7.79703e-19
 z = 7.79741e-19
 z = 7.79734e-19
 z = 7.79772e-19
 z = 7.79765e-19
 z = 7.79804e-19
 z = 7.79797e-19
 z = 7.79835e-19
 z = 7.79828e-19
 z = 7.79866e-19
 z = 7.79859e-19
 z = 7.79897e-19
 z = 7.7989e-19
 z = 7.79929e-19
 z = 1.23656e-18
 z = 1.2366e-18
 z = 1.2366e-18
 z = 1.23664e-18
 z = 1.23664e-18
 z = 1.23668e-18
 z = 1.23668e-18
 z = 1.23672e-18
 z = 1.23672e-18
 z = 1.23676e-18
 z = 1.23676e-18
 z = 1.2368e-18
 z = 1.2368e-18
 z = 1.23684e-18
 z = 1.23684e-18
 z = 1.23688e-18
 z = 1.23689e-18
 z = 1.23693e-18
 z = 1.23693e-18
 z = 1.23697e-18
 z = 4.7942e-19
 z = 4.79455e-19
 z = 4.79446e-19
 z = 4.79481e-19
 z = 4.79471e-19
 z = 4.79506e-19
 z = 4.79496e-19
 z = 4.79531e-19
 z = 4.79521e-19
 z = 4.79556e-19
 z = 4.79547e-19
 z = 4.79582e-19
 z = 4.79572e-19
 z = 4.79607e-19
 z = 4.79597e-19
 z = 4.79632e-19
 z = 4.79622e-19
 z = 4.79657e-19
 z = 4.79648e-19
 z = 4.79682e-19
 z = 480.789
 z = 4.171e-20
 z = 482.36
 z = 4.16959e-20
 z = 483.923
 z = 4.16819e-20
 z = 485.478
 z = 4.16681e-20
 z = 487.025
 z = 4.16544e-20
 z = 488.565
 z = 4.16409e-20
 z = 490.096
 z = 4.16276e-20
 z = 491.62
 z = 4.16144e-20
 z = 493.135
 z = 4.16014e-20
 z = 494.643
 z = 4.15886e-20
 z = 1.33765e-18
 z = 1.33769e-18
 z = 1.33769e-18
 z = 1.33773e-18
 z = 1.33773e-18
 z = 1.33777e-18
 z = 1.33778e-18
 z = 1.33782e-18
 z = 1.33782e-18
 z = 1.33786e-18
 z = 1.33786e-18
 z = 1.3379e-18
 z = 1.33791e-18
 z = 1.33795e-18
 z = 1.33795e-18
 z = 1.33799e-18
 z = 1.33799e-18
 z = 1.33803e-18
 z = 1.33804e-18
 z = 1.33808e-18
 z = 353.483
 z = 1.95023e-19
 z = 354.153
 z = 1.94989e-19
 z = 354.824
 z = 1.94956e-19
 z = 355.496
 z = 1.94922e-19
 z = 356.169
 z = 1.94889e-19
 z = 356.843
 z = 1.94855e-19
 z = 357.517
 z = 1.94821e-19
 z = 358.193
 z = 1.94788e-19
 z = 358.869
 z = 1.94754e-19
 z = 359.546
 z = 1.9472e-19
 z = 372.189
 z = 1.46189e-19
 z = 373.116
 z = 1.46146e-19
 z = 374.045
 z = 1.46103e-19
 z = 374.975
 z = 1.4606e-19
 z = 375.907
 z = 1.46017e-19
 z = 376.841
 z = 1.45974e-19
 z = 377.776
 z = 1.45931e-19
 z = 378.713
 z = 1.45888e-19
 z = 379.652
 z = 1.45845e-19
 z = 380.592
 z = 1.45802e-19
 z = 8.70886e-19
 z = 8.70921e-19
 z = 8.7092e-19
 z = 8.70956e-19
 z = 8.70955e-19
 z = 8.7099e-19
 z = 8.70989e-19
 z = 8.71024e-19
 z = 8.71024e-19
 z = 8.71059e-19
 z = 8.71058e-19
 z = 8.71093e-19
 z = 8.71092e-19
 z = 8.71128e-19
 z = 8.71127e-19
 z = 8.71162e-19
 z = 8.71161e-19
 z = 8.71197e-19
 z = 8.71196e-19
 z = 8.71231e-19
 z = 368.678
 z = 1.20103e-19
 z = 369.797
 z = 1.20059e-19
 z = 370.919
 z = 1.20016e-19
 z = 372.043
 z = 1.19972e-19
 z = 373.169
 z = 1.19929e-19
 z = 374.298
 z = 1.19886e-19
 z = 375.429
 z = 1.19843e-19
 z = 376.562
 z = 1.198e-19
 z = 377.698
 z = 1.19757e-19
 z = 378.836
 z = 1.19715e-19
 z = 2.09958e-18
 z = 2.09961e-18
 z = 2.09964e-18
 z = 2.09967e-18
 z = 2.0997e-18
 z = 2.09973e-18
 z = 2.09975e-18
 z = 2.09979e-18
 z = 2.09981e-18
 z = 2.09985e-18
 z = 2.09987e-18
 z = 2.09991e-18
 z = 2.09993e-18
 z = 2.09996e-18
 z = 2.09999e-18
 z = 2.10002e-18
 z = 2.10005e-18
 z = 2.10008e-18
 z = 2.1001e-18
 z = 2.10014e-18
 z = 286.398
 z = 3.92728e-19
 z = 286.68
 z = 3.92727e-19
 z = 286.962
 z = 3.92726e-19
 z = 287.244
 z = 3.92725e-19
 z = 287.526
 z = 3.92723e-19
 z = 287.809
 z = 3.92722e-19
 z = 288.091
 z = 3.92721e-19
 z = 288.374
 z = 3.9272e-19
 z = 288.657
 z = 3.92718e-19
 z = 288.94
 z = 3.92717e-19
 z = 5.49275e-19
 z = 5.49308e-19
 z = 5.49303e-19
 z = 5.49336e-19
 z = 5.49331e-19
 z = 5.49364e-19
 z = 5.49359e-19
 z = 5.49392e-19
 z = 5.49387e-19
 z = 5.4942e-19
 z = 5.49415e-19
 z = 5.49448e-19
 z = 5.49443e-19
 z = 5.49476e-19
 z = 5.49471e-19
 z = 5.49504e-19
 z = 5.49499e-19
 z = 5.49532e-19
 z = 5.49527e-19
 z = 5.4956e-19
 z = 35.4048
 z = 31.7698
 z = 32.1662
 z = 28.9937
 z = 29.3266
 z = 26.5396
 z = 26.8218
 z = 24.3592
 z = 24.6003
 z = 22.4127
 z = 22.6203
 z = 20.6678
 z = 20.8476
 z = 19.0973
 z = 19.2541
 z = 17.6788
 z = 17.8163
 z = 16.3935
 z = 16.5146
 z = 15.2252
 z = 302.127
 z = 1.82911e-19
 z = 302.742
 z = 1.82859e-19
 z = 303.356
 z = 1.82807e-19
 z = 303.972
 z = 1.82755e-19
 z = 304.588
 z = 1.82703e-19
 z = 305.206
 z = 1.82651e-19
 z = 305.824
 z = 1.82599e-19
 z = 306.443
 z = 1.82547e-19
 z = 307.063
 z = 1.82495e-19
 z = 307.684
 z = 1.82443e-19
Solving chemistry
diagonal:  Solving for rho, Initial residual = 0, Final residual = 0, No Iterations 0
DILUPBiCG:  Solving for Ux, Initial residual = 0.000182557, Final residual = 4.85064e-11, No Iterations 1
DILUPBiCG:  Solving for Uy, Initial residual = 8.41565e-05, Final residual = 5.89409e-14, No Iterations 1
DILUPBiCG:  Solving for Uz, Initial residual = 0.000117484, Final residual = 2.67497e-11, No Iterations 1
DILUPBiCG:  Solving for iC3H8O, Initial residual = 8.6303e-06, Final residual = 2.55912e-13, No Iterations 1
DILUPBiCG:  Solving for O2, Initial residual = 8.63031e-06, Final residual = 2.6143e-13, No Iterations 1
DILUPBiCG:  Solving for CO2, Initial residual = 0, Final residual = 0, No Iterations 0
DILUPBiCG:  Solving for H2O, Initial residual = 0, Final residual = 0, No Iterations 0
DILUPBiCG:  Solving for hs, Initial residual = 6.27678e-05, Final residual = 2.9347e-13, No Iterations 1
DICPCG:  Solving for pd, Initial residual = 0.0199037, Final residual = 9.50236e-10, No Iterations 190
diagonal:  Solving for rho, Initial residual = 0, Final residual = 0, No Iterations 0
time step continuity errors : sum local = 2.26869e-16, global = -2.26457e-17, cumulative = -5.91166e-16
DICPCG:  Solving for pd, Initial residual = 0.000483799, Final residual = 9.67625e-10, No Iterations 173
diagonal:  Solving for rho, Initial residual = 0, Final residual = 0, No Iterations 0
time step continuity errors : sum local = 2.31648e-16, global = -2.34431e-17, cumulative = -6.14609e-16
DILUPBiCG:  Solving for epsilon, Initial residual = 1.38498e-06, Final residual = 2.73962e-13, No Iterations 1
DILUPBiCG:  Solving for k, Initial residual = 1.48872e-06, Final residual = 3.02305e-13, No Iterations 1

Number of parcels in system.... | 14
Injected liquid mass........... | 0.01162 mg
Liquid Mass in system.......... | 0.0112064 mg
SMD, Dmax...................... | 16.8778 mu, 58.9556 mu
Added gas mass................. | 0.000317751 mg
Evaporation Continuity Error... | -9.58815e-05 mg
ExecutionTime = 5.1 s  ClockTime = 5 s
T max/min : 373 363.03
rho max/min : 1.00956 0.930272
pd max/min : 100000 96336.1

Courant Number mean: 4.35571e-05 max: 0.00466038
 MassFlows:   inlet = -0.000291  outlet = 0.000290925
Time = 1.5e-05

Evolving Spray
 z = 7.77173e-19
 z = 7.77212e-19
 z = 7.77198e-19
 z = 7.77237e-19
 z = 7.77223e-19
 z = 7.77262e-19
 z = 7.77249e-19
 z = 7.77287e-19
 z = 7.77274e-19
 z = 7.77312e-19
 z = 7.77299e-19
 z = 7.77337e-19
 z = 7.77324e-19
 z = 7.77362e-19
 z = 7.77349e-19
 z = 7.77387e-19
 z = 7.77374e-19
 z = 7.77412e-19
 z = 7.77399e-19
 z = 7.77437e-19
 z = 1.23242e-18
 z = 1.23246e-18
 z = 1.23245e-18
 z = 1.23249e-18
 z = 1.23248e-18
 z = 1.23252e-18
 z = 1.23251e-18
 z = 1.23255e-18
 z = 1.23254e-18
 z = 1.23258e-18
 z = 1.23257e-18
 z = 1.23261e-18
 z = 1.2326e-18
 z = 1.23264e-18
 z = 1.23263e-18
 z = 1.23267e-18
 z = 1.23266e-18
 z = 1.2327e-18
 z = 1.23269e-18
 z = 1.23273e-18
 z = 4.78178e-19
 z = 4.78214e-19
 z = 4.782e-19
 z = 4.78235e-19
 z = 4.78222e-19
 z = 4.78257e-19
 z = 4.78244e-19
 z = 4.78279e-19
 z = 4.78265e-19
 z = 4.783e-19
 z = 4.78287e-19
 z = 4.78322e-19
 z = 4.78309e-19
 z = 4.78344e-19
 z = 4.78331e-19
 z = 4.78366e-19
 z = 4.78352e-19
 z = 4.78387e-19
 z = 4.78374e-19
 z = 4.78409e-19
 z = 491.26
 z = 4.15369e-20
 z = 492.741
 z = 4.15243e-20
 z = 494.213
 z = 4.15119e-20
 z = 495.677
 z = 4.14996e-20
 z = 497.134
 z = 4.14875e-20
 z = 498.583
 z = 4.14756e-20
 z = 500.024
 z = 4.14638e-20
 z = 501.458
 z = 4.14521e-20
 z = 502.884
 z = 4.14406e-20
 z = 504.302
 z = 4.14293e-20
 z = 1.33344e-18
 z = 1.33348e-18
 z = 1.33347e-18
 z = 1.33351e-18
 z = 1.3335e-18
 z = 1.33354e-18
 z = 1.33353e-18
 z = 1.33357e-18
 z = 1.33356e-18
 z = 1.3336e-18
 z = 1.3336e-18
 z = 1.33363e-18
 z = 1.33363e-18
 z = 1.33367e-18
 z = 1.33366e-18
 z = 1.3337e-18
 z = 1.33369e-18
 z = 1.33373e-18
 z = 1.33372e-18
 z = 1.33376e-18
 z = 356.235
 z = 1.94427e-19
 z = 356.902
 z = 1.94392e-19
 z = 357.571
 z = 1.94358e-19
 z = 358.241
 z = 1.94323e-19
 z = 358.911
 z = 1.94289e-19
 z = 359.582
 z = 1.94254e-19
 z = 360.254
 z = 1.94219e-19
 z = 360.927
 z = 1.94185e-19
 z = 361.601
 z = 1.9415e-19
 z = 362.276
 z = 1.94115e-19
 z = 377.426
 z = 1.45609e-19
 z = 378.355
 z = 1.45566e-19
 z = 379.286
 z = 1.45522e-19
 z = 380.218
 z = 1.45479e-19
 z = 381.152
 z = 1.45436e-19
 z = 382.087
 z = 1.45392e-19
 z = 383.024
 z = 1.45349e-19
 z = 383.962
 z = 1.45306e-19
 z = 384.903
 z = 1.45263e-19
 z = 385.844
 z = 1.45219e-19
 z = 8.68626e-19
 z = 8.68661e-19
 z = 8.68653e-19
 z = 8.68688e-19
 z = 8.6868e-19
 z = 8.68716e-19
 z = 8.68708e-19
 z = 8.68743e-19
 z = 8.68735e-19
 z = 8.6877e-19
 z = 8.68762e-19
 z = 8.68798e-19
 z = 8.6879e-19
 z = 8.68825e-19
 z = 8.68817e-19
 z = 8.68852e-19
 z = 8.68844e-19
 z = 8.6888e-19
 z = 8.68872e-19
 z = 8.68907e-19
 z = 375.9
 z = 1.19568e-19
 z = 377.026
 z = 1.19525e-19
 z = 378.155
 z = 1.19482e-19
 z = 379.285
 z = 1.19439e-19
 z = 380.418
 z = 1.19397e-19
 z = 381.553
 z = 1.19354e-19
 z = 382.691
 z = 1.19312e-19
 z = 383.83
 z = 1.19269e-19
 z = 384.972
 z = 1.19227e-19
 z = 386.116
 z = 1.19185e-19
 z = 2.09337e-18
 z = 2.09341e-18
 z = 2.09341e-18
 z = 2.09345e-18
 z = 2.09345e-18
 z = 2.09349e-18
 z = 2.09349e-18
 z = 2.09353e-18
 z = 2.09353e-18
 z = 2.09356e-18
 z = 2.09357e-18
 z = 2.0936e-18
 z = 2.09361e-18
 z = 2.09364e-18
 z = 2.09364e-18
 z = 2.09368e-18
 z = 2.09368e-18
 z = 2.09372e-18
 z = 2.09372e-18
 z = 2.09376e-18
 z = 285.808
 z = 3.92019e-19
 z = 286.085
 z = 3.92015e-19
 z = 286.363
 z = 3.92011e-19
 z = 286.641
 z = 3.92007e-19
 z = 286.92
 z = 3.92004e-19
 z = 287.198
 z = 3.92e-19
 z = 287.476
 z = 3.91996e-19
 z = 287.755
 z = 3.91992e-19
 z = 288.034
 z = 3.91988e-19
 z = 288.313
 z = 3.91984e-19
 z = 5.48203e-19
 z = 5.48236e-19
 z = 5.48227e-19
 z = 5.4826e-19
 z = 5.48251e-19
 z = 5.48283e-19
 z = 5.48274e-19
 z = 5.48307e-19
 z = 5.48298e-19
 z = 5.48331e-19
 z = 5.48322e-19
 z = 5.48355e-19
 z = 5.48346e-19
 z = 5.48379e-19
 z = 5.4837e-19
 z = 5.48402e-19
 z = 5.48394e-19
 z = 5.48426e-19
 z = 5.48417e-19
 z = 5.4845e-19
 z = 14.0833
 z = 13.0144
 z = 13.1004
 z = 12.1242
 z = 12.2012
 z = 11.3076
 z = 11.3768
 z = 10.5569
 z = 10.6192
 z = 9.8655
 z = 9.92189
 z = 9.22762
 z = 9.27875
 z = 8.63813
 z = 8.68462
 z = 8.09254
 z = 8.1349
 z = 7.58686
 z = 7.62555
 z = 7.11754
 z = 304.777
 z = 1.82298e-19
 z = 305.418
 z = 1.82264e-19
 z = 306.06
 z = 1.8223e-19
 z = 306.703
 z = 1.82195e-19
 z = 307.347
 z = 1.82161e-19
 z = 307.992
 z = 1.82127e-19
 z = 308.638
 z = 1.82093e-19
 z = 309.284
 z = 1.82059e-19
 z = 309.932
 z = 1.82024e-19
 z = 310.58
 z = 1.8199e-19
 z = 267.978
 z = 4.80783e-19
 z = 268.186
 z = 4.80762e-19
 z = 268.388
 z = 4.80741e-19
 z = 268.591
 z = 4.8072e-19
 z = 268.793
 z = 4.80699e-19
 z = 268.996
 z = 4.80678e-19
 z = 269.198
 z = 4.80657e-19
 z = 269.401
 z = 4.80636e-19
 z = 269.604
 z = 4.80615e-19
 z = 269.807
 z = 4.80594e-19
Solving chemistry
diagonal:  Solving for rho, Initial residual = 0, Final residual = 0, No Iterations 0
DILUPBiCG:  Solving for Ux, Initial residual = 0.00025572, Final residual = 6.79617e-11, No Iterations 1
DILUPBiCG:  Solving for Uy, Initial residual = 0.000210843, Final residual = 5.44966e-14, No Iterations 1
DILUPBiCG:  Solving for Uz, Initial residual = 0.000167477, Final residual = 3.80861e-11, No Iterations 1
DILUPBiCG:  Solving for iC3H8O, Initial residual = 2.41288e-06, Final residual = 1.12562e-13, No Iterations 1
DILUPBiCG:  Solving for O2, Initial residual = 2.41289e-06, Final residual = 1.09349e-13, No Iterations 1
DILUPBiCG:  Solving for CO2, Initial residual = 0, Final residual = 0, No Iterations 0
DILUPBiCG:  Solving for H2O, Initial residual = 0, Final residual = 0, No Iterations 0
DILUPBiCG:  Solving for hs, Initial residual = 5.44193e-05, Final residual = 1.23571e-13, No Iterations 1
DICPCG:  Solving for pd, Initial residual = 0.00949327, Final residual = 7.36085e-10, No Iterations 189
diagonal:  Solving for rho, Initial residual = 0, Final residual = 0, No Iterations 0
time step continuity errors : sum local = 2.28306e-16, global = -2.48517e-17, cumulative = -6.39461e-16
DICPCG:  Solving for pd, Initial residual = 0.00492933, Final residual = 8.77221e-10, No Iterations 181
diagonal:  Solving for rho, Initial residual = 0, Final residual = 0, No Iterations 0
time step continuity errors : sum local = 1.99319e-16, global = -2.45527e-17, cumulative = -6.64013e-16
DILUPBiCG:  Solving for epsilon, Initial residual = 1.39082e-06, Final residual = 2.76833e-13, No Iterations 1
DILUPBiCG:  Solving for k, Initial residual = 1.48786e-06, Final residual = 3.02272e-13, No Iterations 1

Number of parcels in system.... | 15
Injected liquid mass........... | 0.01245 mg
Liquid Mass in system.......... | 0.0120338 mg
SMD, Dmax...................... | 17.1119 mu, 58.8706 mu
Added gas mass................. | 0.000325585 mg
Evaporation Continuity Error... | -9.05926e-05 mg
ExecutionTime = 5.45 s  ClockTime = 6 s
T max/min : 373 362.419
rho max/min : 1.01144 0.930272
pd max/min : 100014 99805.6

Courant Number mean: 4.35569e-05 max: 0.0033675
 MassFlows:   inlet = -0.000291  outlet = 0.000290927
Time = 1.6e-05

Evolving Spray
 z = 7.77671e-19
 z = 7.77709e-19
 z = 7.77695e-19
 z = 7.77734e-19
 z = 7.7772e-19
 z = 7.77758e-19
 z = 7.77745e-19
 z = 7.77783e-19
 z = 7.77769e-19
 z = 7.77808e-19
 z = 7.77794e-19
 z = 7.77832e-19
 z = 7.77819e-19
 z = 7.77857e-19
 z = 7.77843e-19
 z = 7.77882e-19
 z = 7.77868e-19
 z = 7.77906e-19
 z = 7.77893e-19
 z = 7.77931e-19
 z = 1.2331e-18
 z = 1.23314e-18
 z = 1.23313e-18
 z = 1.23317e-18
 z = 1.23316e-18
 z = 1.2332e-18
 z = 1.23319e-18
 z = 1.23323e-18
 z = 1.23322e-18
 z = 1.23326e-18
 z = 1.23325e-18
 z = 1.23329e-18
 z = 1.23328e-18
 z = 1.23332e-18
 z = 1.23331e-18
 z = 1.23335e-18
 z = 1.23334e-18
 z = 1.23338e-18
 z = 1.23337e-18
 z = 1.23341e-18
 z = 4.78554e-19
 z = 4.78589e-19
 z = 4.78576e-19
 z = 4.78611e-19
 z = 4.78597e-19
 z = 4.78632e-19
 z = 4.78619e-19
 z = 4.78654e-19
 z = 4.7864e-19
 z = 4.78675e-19
 z = 4.78662e-19
 z = 4.78697e-19
 z = 4.78683e-19
 z = 4.78718e-19
 z = 4.78705e-19
 z = 4.7874e-19
 z = 4.78726e-19
 z = 4.78761e-19
 z = 4.78748e-19
 z = 4.78783e-19
 z = 505.031
 z = 4.14434e-20
 z = 506.404
 z = 4.14329e-20
 z = 507.77
 z = 4.14225e-20
 z = 509.128
 z = 4.14122e-20
 z = 510.478
 z = 4.14021e-20
 z = 511.821
 z = 4.13922e-20
 z = 513.157
 z = 4.13823e-20
 z = 514.485
 z = 4.13727e-20
 z = 515.806
 z = 4.13631e-20
 z = 517.12
 z = 4.13537e-20
 z = 1.33416e-18
 z = 1.3342e-18
 z = 1.33419e-18
 z = 1.33423e-18
 z = 1.33422e-18
 z = 1.33426e-18
 z = 1.33425e-18
 z = 1.33429e-18
 z = 1.33428e-18
 z = 1.33432e-18
 z = 1.33431e-18
 z = 1.33435e-18
 z = 1.33434e-18
 z = 1.33438e-18
 z = 1.33437e-18
 z = 1.33441e-18
 z = 1.33441e-18
 z = 1.33444e-18
 z = 1.33444e-18
 z = 1.33447e-18
 z = 362.355
 z = 1.94196e-19
 z = 363.024
 z = 1.94162e-19
 z = 363.695
 z = 1.94127e-19
 z = 364.366
 z = 1.94093e-19
 z = 365.038
 z = 1.94058e-19
 z = 365.711
 z = 1.94024e-19
 z = 366.384
 z = 1.93989e-19
 z = 367.059
 z = 1.93955e-19
 z = 367.734
 z = 1.9392e-19
 z = 368.411
 z = 1.93885e-19
 z = 386.164
 z = 1.45266e-19
 z = 387.1
 z = 1.45224e-19
 z = 388.037
 z = 1.45181e-19
 z = 388.975
 z = 1.45138e-19
 z = 389.915
 z = 1.45096e-19
 z = 390.857
 z = 1.45053e-19
 z = 391.8
 z = 1.4501e-19
 z = 392.745
 z = 1.44968e-19
 z = 393.692
 z = 1.44925e-19
 z = 394.64
 z = 1.44883e-19
 z = 8.69193e-19
 z = 8.69228e-19
 z = 8.6922e-19
 z = 8.69255e-19
 z = 8.69247e-19
 z = 8.69282e-19
 z = 8.69274e-19
 z = 8.69309e-19
 z = 8.69301e-19
 z = 8.69336e-19
 z = 8.69327e-19
 z = 8.69363e-19
 z = 8.69354e-19
 z = 8.6939e-19
 z = 8.69381e-19
 z = 8.69417e-19
 z = 8.69408e-19
 z = 8.69444e-19
 z = 8.69435e-19
 z = 8.6947e-19
 z = 386.62
 z = 1.19216e-19
 z = 387.757
 z = 1.19174e-19
 z = 388.897
 z = 1.19133e-19
 z = 390.039
 z = 1.19092e-19
 z = 391.183
 z = 1.19051e-19
 z = 392.33
 z = 1.1901e-19
 z = 393.478
 z = 1.18969e-19
 z = 394.629
 z = 1.18929e-19
 z = 395.782
 z = 1.18889e-19
 z = 396.938
 z = 1.18848e-19
 z = 2.09442e-18
 z = 2.09445e-18
 z = 2.09446e-18
 z = 2.09449e-18
 z = 2.09449e-18
 z = 2.09453e-18
 z = 2.09453e-18
 z = 2.09457e-18
 z = 2.09457e-18
 z = 2.0946e-18
 z = 2.09461e-18
 z = 2.09464e-18
 z = 2.09464e-18
 z = 2.09468e-18
 z = 2.09468e-18
 z = 2.09472e-18
 z = 2.09472e-18
 z = 2.09475e-18
 z = 2.09476e-18
 z = 2.09479e-18
 z = 288.056
 z = 3.92172e-19
 z = 288.332
 z = 3.92168e-19
 z = 288.609
 z = 3.92164e-19
 z = 288.886
 z = 3.9216e-19
 z = 289.162
 z = 3.92156e-19
 z = 289.439
 z = 3.92152e-19
 z = 289.717
 z = 3.92148e-19
 z = 289.994
 z = 3.92144e-19
 z = 290.271
 z = 3.9214e-19
 z = 290.549
 z = 3.92136e-19
 z = 5.48636e-19
 z = 5.48669e-19
 z = 5.4866e-19
 z = 5.48693e-19
 z = 5.48684e-19
 z = 5.48716e-19
 z = 5.48707e-19
 z = 5.4874e-19
 z = 5.48731e-19
 z = 5.48763e-19
 z = 5.48754e-19
 z = 5.48787e-19
 z = 5.48778e-19
 z = 5.4881e-19
 z = 5.48801e-19
 z = 5.48834e-19
 z = 5.48825e-19
 z = 5.48858e-19
 z = 5.48848e-19
 z = 5.48881e-19
 z = 6.84624
 z = 6.3958
 z = 6.42673
 z = 6.00791
 z = 6.03637
 z = 5.64653
 z = 5.67275
 z = 5.30951
 z = 5.33372
 z = 4.99494
 z = 5.01732
 z = 4.70108
 z = 4.7218
 z = 4.42635
 z = 4.44556
 z = 4.16933
 z = 4.18715
 z = 3.92871
 z = 3.94527
 z = 3.7033
 z = 310.644
 z = 1.82073e-19
 z = 311.288
 z = 1.82039e-19
 z = 311.932
 z = 1.82005e-19
 z = 312.578
 z = 1.81971e-19
 z = 313.224
 z = 1.81937e-19
 z = 313.871
 z = 1.81903e-19
 z = 314.519
 z = 1.81869e-19
 z = 315.168
 z = 1.81834e-19
 z = 315.818
 z = 1.818e-19
 z = 316.469
 z = 1.81766e-19
 z = 269.5
 z = 4.8083e-19
 z = 269.714
 z = 4.80833e-19
 z = 269.927
 z = 4.80836e-19
 z = 270.141
 z = 4.80839e-19
 z = 270.355
 z = 4.80842e-19
 z = 270.568
 z = 4.80845e-19
 z = 270.782
 z = 4.80848e-19
 z = 270.996
 z = 4.80851e-19
 z = 271.21
 z = 4.80854e-19
 z = 271.425
 z = 4.80857e-19
 z = 311.095
 z = 1.17287e-19
 z = 312.061
 z = 1.17224e-19
 z = 313.03
 z = 1.17161e-19
 z = 314
 z = 1.17098e-19
 z = 314.972
 z = 1.17035e-19
 z = 315.947
 z = 1.16972e-19
 z = 316.924
 z = 1.1691e-19
 z = 317.903
 z = 1.16847e-19
 z = 318.884
 z = 1.16785e-19
 z = 319.867
 z = 1.16722e-19
Solving chemistry
diagonal:  Solving for rho, Initial residual = 0, Final residual = 0, No Iterations 0
DILUPBiCG:  Solving for Ux, Initial residual = 1.08925e-05, Final residual = 3.44252e-12, No Iterations 1
DILUPBiCG:  Solving for Uy, Initial residual = 0.00010461, Final residual = 1.09354e-13, No Iterations 1
DILUPBiCG:  Solving for Uz, Initial residual = 1.54383e-06, Final residual = 3.89299e-13, No Iterations 1
DILUPBiCG:  Solving for iC3H8O, Initial residual = 9.7989e-07, Final residual = 9.7989e-07, No Iterations 0
DILUPBiCG:  Solving for O2, Initial residual = 9.79897e-07, Final residual = 9.79897e-07, No Iterations 0
DILUPBiCG:  Solving for CO2, Initial residual = 0, Final residual = 0, No Iterations 0
DILUPBiCG:  Solving for H2O, Initial residual = 0, Final residual = 0, No Iterations 0
DILUPBiCG:  Solving for hs, Initial residual = 5.6148e-05, Final residual = 1.32509e-13, No Iterations 1
DICPCG:  Solving for pd, Initial residual = 0.0252294, Final residual = 6.68539e-10, No Iterations 189
diagonal:  Solving for rho, Initial residual = 0, Final residual = 0, No Iterations 0
time step continuity errors : sum local = 1.99714e-16, global = -2.36571e-17, cumulative = -6.8767e-16
DICPCG:  Solving for pd, Initial residual = 0.000135461, Final residual = 9.17913e-10, No Iterations 169
diagonal:  Solving for rho, Initial residual = 0, Final residual = 0, No Iterations 0
time step continuity errors : sum local = 1.93074e-16, global = -2.28982e-17, cumulative = -7.10569e-16
DILUPBiCG:  Solving for epsilon, Initial residual = 1.39694e-06, Final residual = 2.76522e-13, No Iterations 1
[...]
 z = 1.05701e-18
 z = 1.05713e-18
 z = 1.05716e-18
 z = 1.05728e-18
 z = 1.05731e-18
 z = 1.05744e-18
 z = 1.05746e-18
 z = 1.05759e-18
 z = 1.05762e-18
 z = 1.05774e-18
 z = 1.05777e-18
 z = 1.05789e-18
 z = 1.05792e-18
 z = 1.11e-18
 z = 1.11003e-18
 z = 1.11017e-18
 z = 1.1102e-18
 z = 1.11033e-18
 z = 1.11036e-18
 z = 1.1105e-18
 z = 1.11053e-18
 z = 1.11066e-18
 z = 1.11069e-18
 z = 1.11083e-18
 z = 1.11085e-18
 z = 1.11099e-18
 z = 1.11102e-18
 z = 1.11116e-18
 z = 1.11118e-18
 z = 1.11132e-18
 z = 1.11135e-18
 z = 1.11149e-18
 z = 1.11151e-18
 z = 177.893
 z = 4.50865e-19
 z = 177.976
 z = 4.5093e-19
 z = 178.058
 z = 4.50994e-19
 z = 178.141
 z = 4.51059e-19
 z = 178.224
 z = 4.51124e-19
 z = 178.306
 z = 4.51189e-19
 z = 178.389
 z = 4.51254e-19
 z = 178.472
 z = 4.51319e-19
 z = 178.554
 z = 4.51384e-19
 z = 178.637
 z = 4.51449e-19
 z = 3.1595e-18
 z = 3.15954e-18
 z = 3.16e-18
 z = 3.16003e-18
 z = 3.16049e-18
 z = 3.16052e-18
 z = 3.16099e-18
 z = 3.16102e-18
 z = 3.16148e-18
 z = 3.16151e-18
 z = 3.16197e-18
 z = 3.16201e-18
 z = 3.16247e-18
 z = 3.1625e-18
 z = 3.16296e-18
 z = 3.163e-18
 z = 3.16346e-18
 z = 3.16349e-18
 z = 3.16395e-18
 z = 3.16399e-18
 z = 153.188
 z = 6.28808e-19
 z = 153.248
 z = 6.28901e-19
 z = 153.308
 z = 6.28995e-19
 z = 153.368
 z = 6.29089e-19
 z = 153.428
 z = 6.29183e-19
 z = 153.488
 z = 6.29276e-19
 z = 153.547
 z = 6.2937e-19
 z = 153.607
 z = 6.29464e-19
 z = 153.667
 z = 6.29558e-19
 z = 153.727
 z = 6.29652e-19
 z = 146.158
 z = 6.93985e-19
 z = 146.211
 z = 6.94084e-19
 z = 146.264
 z = 6.94182e-19
 z = 146.317
 z = 6.94281e-19
 z = 146.371
 z = 6.9438e-19
 z = 146.424
 z = 6.94478e-19
 z = 146.477
 z = 6.94577e-19
 z = 146.53
 z = 6.94675e-19
 z = 146.584
 z = 6.94774e-19
 z = 146.637
 z = 6.94873e-19
 z = 357.637
 z = 1.15181e-19
 z = 357.971
 z = 1.1519e-19
 z = 358.305
 z = 1.152e-19
 z = 358.639
 z = 1.15209e-19
 z = 358.973
 z = 1.15218e-19
 z = 359.307
 z = 1.15228e-19
 z = 359.64
 z = 1.15237e-19
 z = 359.974
 z = 1.15246e-19
 z = 360.308
 z = 1.15256e-19
 z = 360.642
 z = 1.15265e-19
 z = 9.35708e-19
 z = 9.35734e-19
 z = 9.35843e-19
 z = 9.3587e-19
 z = 9.35979e-19
 z = 9.36006e-19
 z = 9.36115e-19
 z = 9.36141e-19
 z = 9.3625e-19
 z = 9.36277e-19
 z = 9.36386e-19
 z = 9.36413e-19
 z = 9.36522e-19
 z = 9.36548e-19
 z = 9.36657e-19
 z = 9.36684e-19
 z = 9.36793e-19
 z = 9.3682e-19
 z = 9.36929e-19
 z = 9.36956e-19
 z = 143.559
 z = 6.85168e-19
 z = 143.613
 z = 6.8527e-19
 z = 143.667
 z = 6.85373e-19
 z = 143.721
 z = 6.85475e-19
 z = 143.776
 z = 6.85578e-19
 z = 143.83
 z = 6.8568e-19
 z = 143.884
 z = 6.85782e-19
 z = 143.938
 z = 6.85885e-19
 z = 143.992
 z = 6.85987e-19
 z = 144.047
 z = 6.8609e-19
 z = 143.747
 z = 6.59705e-19
 z = 143.802
 z = 6.59802e-19
 z = 143.857
 z = 6.59898e-19
 z = 143.912
 z = 6.59995e-19
 z = 143.968
 z = 6.60091e-19
 z = 144.023
 z = 6.60188e-19
 z = 144.078
 z = 6.60284e-19
 z = 144.133
 z = 6.60381e-19
 z = 144.188
 z = 6.60478e-19
 z = 144.244
 z = 6.60574e-19
 z = 142.086
 z = 6.69599e-19
 z = 142.141
 z = 6.69699e-19
 z = 142.195
 z = 6.69799e-19
 z = 142.25
 z = 6.69898e-19
 z = 142.304
 z = 6.69998e-19
 z = 142.359
 z = 6.70098e-19
 z = 142.413
 z = 6.70198e-19
 z = 142.468
 z = 6.70297e-19
 z = 142.523
 z = 6.70397e-19
 z = 142.577
 z = 6.70497e-19
 z = 158.068
 z = 4.60734e-19
 z = 158.143
 z = 4.60799e-19
 z = 158.218
 z = 4.60864e-19
 z = 158.293
 z = 4.60928e-19
 z = 158.369
 z = 4.60993e-19
 z = 158.444
 z = 4.61058e-19
 z = 158.519
 z = 4.61122e-19
 z = 158.595
 z = 4.61187e-19
 z = 158.67
 z = 4.61252e-19
 z = 158.745
 z = 4.61316e-19
 z = 146.039
 z = 5.75872e-19
 z = 146.1
 z = 5.75957e-19
 z = 146.162
 z = 5.76042e-19
 z = 146.223
 z = 5.76127e-19
 z = 146.285
 z = 5.76212e-19
 z = 146.347
 z = 5.76297e-19
 z = 146.408
 z = 5.76382e-19
 z = 146.47
 z = 5.76467e-19
 z = 146.532
 z = 5.76552e-19
 z = 146.593
 z = 5.76638e-19
 z = 152.806
 z = 4.78956e-19
 z = 152.877
 z = 4.79024e-19
 z = 152.949
 z = 4.79091e-19
 z = 153.021
 z = 4.79159e-19
 z = 153.093
 z = 4.79226e-19
 z = 153.164
 z = 4.79294e-19
 z = 153.236
 z = 4.79361e-19
 z = 153.308
 z = 4.79429e-19
 z = 153.38
 z = 4.79496e-19
 z = 153.451
 z = 4.79564e-19
 z = 163.622
 z = 3.79484e-19
 z = 163.712
 z = 3.79536e-19
 z = 163.801
 z = 3.79589e-19
 z = 163.891
 z = 3.79642e-19
 z = 163.981
 z = 3.79695e-19
 z = 164.071
 z = 3.79748e-19
 z = 164.161
 z = 3.798e-19
 z = 164.251
 z = 3.79853e-19
 z = 164.341
 z = 3.79906e-19
 z = 164.43
 z = 3.79959e-19
 z = 7.59411e-19
 z = 7.59437e-19
 z = 7.59522e-19
 z = 7.59548e-19
 z = 7.59634e-19
 z = 7.5966e-19
 z = 7.59746e-19
 z = 7.59772e-19
 z = 7.59858e-19
 z = 7.59884e-19
 z = 7.5997e-19
 z = 7.59996e-19
 z = 7.60082e-19
 z = 7.60108e-19
 z = 7.60193e-19
 z = 7.60219e-19
 z = 7.60305e-19
 z = 7.60331e-19
 z = 7.60417e-19
 z = 7.60443e-19
 z = 193.188
 z = 2.31753e-19
 z = 193.337
 z = 2.31782e-19
 z = 193.486
 z = 2.3181e-19
 z = 193.635
 z = 2.31839e-19
 z = 193.784
 z = 2.31867e-19
 z = 193.934
 z = 2.31896e-19
 z = 194.083
 z = 2.31924e-19
 z = 194.232
 z = 2.31952e-19
 z = 194.381
 z = 2.31981e-19
 z = 194.53
 z = 2.32009e-19
 z = 131.577
 z = 7.20762e-19
 z = 131.625
 z = 7.20865e-19
 z = 131.674
 z = 7.20967e-19
 z = 131.722
 z = 7.2107e-19
 z = 131.771
 z = 7.21173e-19
 z = 131.819
 z = 7.21275e-19
 z = 131.868
 z = 7.21378e-19
 z = 131.916
 z = 7.21481e-19
 z = 131.965
 z = 7.21584e-19
 z = 132.013
 z = 7.21687e-19
 z = 9.63553e-19
 z = 9.6358e-19
 z = 9.63697e-19
 z = 9.63724e-19
 z = 9.63841e-19
 z = 9.63868e-19
 z = 9.63986e-19
 z = 9.64013e-19
 z = 9.6413e-19
 z = 9.64157e-19
 z = 9.64274e-19
 z = 9.64301e-19
 z = 9.64419e-19
 z = 9.64446e-19
 z = 9.64563e-19
 z = 9.6459e-19
 z = 9.64707e-19
 z = 9.64734e-19
 z = 9.64852e-19
 z = 9.64879e-19
 z = 217.192
 z = 1.58738e-19
 z = 217.413
 z = 1.58752e-19
 z = 217.633
 z = 1.58767e-19
 z = 217.854
 z = 1.58781e-19
 z = 218.075
 z = 1.58795e-19
 z = 218.295
 z = 1.5881e-19
 z = 218.516
 z = 1.58824e-19
 z = 218.737
 z = 1.58839e-19
 z = 218.958
 z = 1.58853e-19
 z = 219.179
 z = 1.58868e-19
 z = 1.01477e-18
 z = 1.01479e-18
 z = 1.01492e-18
 z = 1.01494e-18
 z = 1.01507e-18
 z = 1.0151e-18
 z = 1.01522e-18
 z = 1.01525e-18
 z = 1.01537e-18
 z = 1.0154e-18
 z = 1.01553e-18
 z = 1.01555e-18
 z = 1.01568e-18
 z = 1.01571e-18
 z = 1.01583e-18
 z = 1.01586e-18
 z = 1.01598e-18
 z = 1.01601e-18
 z = 1.01613e-18
 z = 1.01616e-18
 z = 3.87932e-18
 z = 3.87935e-18
 z = 3.87993e-18
 z = 3.87996e-18
 z = 3.88053e-18
 z = 3.88056e-18
 z = 3.88114e-18
 z = 3.88117e-18
 z = 3.88174e-18
 z = 3.88178e-18
 z = 3.88235e-18
 z = 3.88238e-18
 z = 3.88295e-18
 z = 3.88299e-18
 z = 3.88356e-18
 z = 3.88359e-18
 z = 3.88417e-18
 z = 3.8842e-18
 z = 3.88477e-18
 z = 3.88481e-18
 z = 173.365
 z = 2.412e-19
 z = 173.503
 z = 2.41231e-19
 z = 173.64
 z = 2.41263e-19
 z = 173.778
 z = 2.41294e-19
 z = 173.915
 z = 2.41326e-19
 z = 174.053
 z = 2.41357e-19
 z = 174.19
 z = 2.41389e-19
 z = 174.328
 z = 2.4142e-19
 z = 174.465
 z = 2.41452e-19
 z = 174.603
 z = 2.41483e-19
 z = 1.32825e-18
 z = 1.32828e-18
 z = 1.32844e-18
 z = 1.32847e-18
 z = 1.32863e-18
 z = 1.32866e-18
 z = 1.32882e-18
 z = 1.32885e-18
 z = 1.32901e-18
 z = 1.32904e-18
 z = 1.3292e-18
 z = 1.32923e-18
 z = 1.32939e-18
 z = 1.32942e-18
 z = 1.32958e-18
 z = 1.32961e-18
 z = 1.32977e-18
 z = 1.3298e-18
 z = 1.32996e-18
 z = 1.32999e-18
 z = 158.386
 z = 2.91203e-19
 z = 158.497
 z = 2.91243e-19
 z = 158.607
 z = 2.91282e-19
 z = 158.718
 z = 2.91322e-19
 z = 158.829
 z = 2.91362e-19
 z = 158.94
 z = 2.91401e-19
 z = 159.051
 z = 2.91441e-19
 z = 159.162
 z = 2.9148e-19
 z = 159.273
 z = 2.9152e-19
 z = 159.384
 z = 2.9156e-19
 z = 138.931
 z = 4.50264e-19
 z = 139.002
 z = 4.50327e-19
 z = 139.073
 z = 4.50389e-19
 z = 139.144
 z = 4.50452e-19
 z = 139.215
 z = 4.50515e-19
 z = 139.286
 z = 4.50578e-19
 z = 139.357
 z = 4.5064e-19
 z = 139.428
 z = 4.50703e-19
 z = 139.499
 z = 4.50766e-19
 z = 139.57
 z = 4.50829e-19
 z = 143.852
 z = 3.81361e-19
 z = 143.936
 z = 3.81415e-19
 z = 144.02
 z = 3.8147e-19
 z = 144.104
 z = 3.81525e-19
 z = 144.188
 z = 3.8158e-19
 z = 144.272
 z = 3.81635e-19
 z = 144.355
 z = 3.8169e-19
 z = 144.439
 z = 3.81745e-19
 z = 144.523
 z = 3.818e-19
 z = 144.607
 z = 3.81855e-19
 z = 1.17207e-18
 z = 1.1721e-18
 z = 1.17224e-18
 z = 1.17227e-18
 z = 1.17241e-18
 z = 1.17244e-18
 z = 1.17258e-18
 z = 1.17261e-18
 z = 1.17275e-18
 z = 1.17278e-18
 z = 1.17292e-18
 z = 1.17295e-18
 z = 1.17309e-18
 z = 1.17312e-18
 z = 1.17327e-18
 z = 1.17329e-18
 z = 1.17344e-18
 z = 1.17347e-18
 z = 1.17361e-18
 z = 1.17364e-18
 z = 1.86733e-18
 z = 1.86736e-18
 z = 1.8676e-18
 z = 1.86763e-18
 z = 1.86788e-18
 z = 1.86791e-18
 z = 1.86816e-18
 z = 1.86819e-18
 z = 1.86843e-18
 z = 1.86846e-18
 z = 1.86871e-18
 z = 1.86874e-18
 z = 1.86899e-18
 z = 1.86902e-18
 z = 1.86926e-18
 z = 1.86929e-18
 z = 1.86954e-18
 z = 1.86957e-18
 z = 1.86982e-18
 z = 1.86985e-18
 z = 127.412
 z = 5.8135e-19
 z = 127.467
 z = 5.81432e-19
 z = 127.522
 z = 5.81514e-19
 z = 127.578
 z = 5.81596e-19
 z = 127.633
 z = 5.81678e-19
 z = 127.688
 z = 5.8176e-19
 z = 127.743
 z = 5.81842e-19
 z = 127.798
 z = 5.81924e-19
 z = 127.854
 z = 5.82006e-19
 z = 127.909
 z = 5.82088e-19
 z = 189.873
 z = 1.27795e-19
 z = 190.129
 z = 1.27803e-19
 z = 190.385
 z = 1.27812e-19
 z = 190.642
 z = 1.2782e-19
 z = 190.898
 z = 1.27828e-19
 z = 191.155
 z = 1.27837e-19
 z = 191.412
 z = 1.27845e-19
 z = 191.668
 z = 1.27853e-19
 z = 191.925
 z = 1.27862e-19
 z = 192.182
 z = 1.2787e-19
 z = 1.42449e-18
 z = 1.42452e-18
 z = 1.42469e-18
 z = 1.42472e-18
 z = 1.42489e-18
 z = 1.42492e-18
 z = 1.42509e-18
 z = 1.42512e-18
 z = 1.42528e-18
 z = 1.42531e-18
 z = 1.42548e-18
 z = 1.42551e-18
 z = 1.42568e-18
 z = 1.42571e-18
 z = 1.42588e-18
 z = 1.42591e-18
 z = 1.42608e-18
 z = 1.42611e-18
 z = 1.42628e-18
 z = 1.42631e-18
 z = 3.50068e-18
 z = 3.50071e-18
 z = 3.50119e-18
 z = 3.50123e-18
 z = 3.50171e-18
 z = 3.50174e-18
 z = 3.50223e-18
 z = 3.50226e-18
 z = 3.50274e-18
 z = 3.50278e-18
 z = 3.50326e-18
 z = 3.5033e-18
 z = 3.50378e-18
 z = 3.50381e-18
 z = 3.5043e-18
 z = 3.50433e-18
 z = 3.50482e-18
 z = 3.50485e-18
 z = 3.50533e-18
 z = 3.50537e-18
 z = 8.36096e-19
 z = 8.36123e-19
 z = 8.3622e-19
 z = 8.36247e-19
 z = 8.36344e-19
 z = 8.36371e-19
 z = 8.36468e-19
 z = 8.36495e-19
 z = 8.36592e-19
 z = 8.36619e-19
 z = 8.36716e-19
 z = 8.36743e-19
 z = 8.3684e-19
 z = 8.36867e-19
 z = 8.36964e-19
 z = 8.36992e-19
 z = 8.37089e-19
 z = 8.37116e-19
 z = 8.37213e-19
 z = 8.3724e-19
 z = 8.35864e-19
 z = 8.35892e-19
 z = 8.35986e-19
 z = 8.36014e-19
 z = 8.36108e-19
 z = 8.36136e-19
 z = 8.36231e-19
 z = 8.36258e-19
 z = 8.36353e-19
 z = 8.3638e-19
 z = 8.36475e-19
 z = 8.36502e-19
 z = 8.36597e-19
 z = 8.36624e-19
 z = 8.36719e-19
 z = 8.36746e-19
 z = 8.36841e-19
 z = 8.36868e-19
 z = 8.36964e-19
 z = 8.36991e-19
 z = 127.699
 z = 4.67634e-19
 z = 127.765
 z = 4.677e-19
 z = 127.83
 z = 4.67765e-19
 z = 127.896
 z = 4.67831e-19
 z = 127.961
 z = 4.67896e-19
 z = 128.027
 z = 4.67962e-19
 z = 128.093
 z = 4.68028e-19
 z = 128.158
 z = 4.68094e-19
 z = 128.224
 z = 4.68159e-19
 z = 128.289
 z = 4.68225e-19
 z = 137.141
 z = 3.0896e-19
 z = 137.239
 z = 3.09003e-19
 z = 137.337
 z = 3.09046e-19
 z = 137.434
 z = 3.09089e-19
 z = 137.532
 z = 3.09131e-19
 z = 137.629
 z = 3.09174e-19
 z = 137.727
 z = 3.09217e-19
 z = 137.825
 z = 3.0926e-19
 z = 137.922
 z = 3.09303e-19
 z = 138.02
 z = 3.09346e-19
 z = 135.536
 z = 3.14009e-19
 z = 135.632
 z = 3.14054e-19
 z = 135.728
 z = 3.14098e-19
 z = 135.824
 z = 3.14143e-19
 z = 135.92
 z = 3.14187e-19
 z = 136.016
 z = 3.14232e-19
 z = 136.112
 z = 3.14277e-19
 z = 136.208
 z = 3.14321e-19
 z = 136.304
 z = 3.14366e-19
 z = 136.4
 z = 3.1441e-19
 z = 138.403
 z = 2.66496e-19
 z = 138.515
 z = 2.66532e-19
 z = 138.627
 z = 2.66569e-19
 z = 138.74
 z = 2.66605e-19
 z = 138.852
 z = 2.66641e-19
 z = 138.964
 z = 2.66678e-19
 z = 139.076
 z = 2.66714e-19
 z = 139.189
 z = 2.66751e-19
 z = 139.301
 z = 2.66787e-19
 z = 139.413
 z = 2.66824e-19
 z = 155.312
 z = 1.41916e-19
 z = 155.526
 z = 1.41928e-19
 z = 155.74
 z = 1.41941e-19
 z = 155.955
 z = 1.41953e-19
 z = 156.17
 z = 1.41965e-19
 z = 156.384
 z = 1.41977e-19
 z = 156.599
 z = 1.4199e-19
 z = 156.814
 z = 1.42002e-19
 z = 157.029
 z = 1.42014e-19
 z = 157.244
 z = 1.42026e-19
 z = 131.559
 z = 3.19086e-19
 z = 131.652
 z = 3.19131e-19
 z = 131.745
 z = 3.19176e-19
 z = 131.838
 z = 3.19221e-19
 z = 131.93
 z = 3.19266e-19
 z = 132.023
 z = 3.19311e-19
 z = 132.116
 z = 3.19356e-19
 z = 132.209
 z = 3.19401e-19
 z = 132.302
 z = 3.19447e-19
 z = 132.395
 z = 3.19492e-19
 z = 149.955
 z = 1.42604e-19
 z = 150.165
 z = 1.42617e-19
 z = 150.375
 z = 1.42629e-19
 z = 150.585
 z = 1.42642e-19
 z = 150.796
 z = 1.42654e-19
 z = 151.006
 z = 1.42667e-19
 z = 151.216
 z = 1.42679e-19
 z = 151.427
 z = 1.42691e-19
 z = 151.637
 z = 1.42704e-19
 z = 151.848
 z = 1.42716e-19
 z = 1.19867e-18
 z = 1.1987e-18
 z = 1.19885e-18
 z = 1.19888e-18
 z = 1.19902e-18
 z = 1.19905e-18
 z = 1.19919e-18
 z = 1.19922e-18
 z = 1.19937e-18
 z = 1.19939e-18
 z = 1.19954e-18
 z = 1.19957e-18
 z = 1.19971e-18
 z = 1.19974e-18
 z = 1.19988e-18
 z = 1.19991e-18
 z = 1.20006e-18
 z = 1.20009e-18
 z = 1.20023e-18
 z = 1.20026e-18
 z = 1.36432e-18
 z = 1.36435e-18
 z = 1.36451e-18
 z = 1.36454e-18
 z = 1.3647e-18
 z = 1.36472e-18
 z = 1.36488e-18
 z = 1.36491e-18
 z = 1.36507e-18
 z = 1.3651e-18
 z = 1.36526e-18
 z = 1.36529e-18
 z = 1.36545e-18
 z = 1.36548e-18
 z = 1.36564e-18
 z = 1.36567e-18
 z = 1.36583e-18
 z = 1.36586e-18
 z = 1.36602e-18
 z = 1.36605e-18
 z = 132.067
 z = 2.43431e-19
 z = 132.185
 z = 2.43462e-19
 z = 132.304
 z = 2.43494e-19
 z = 132.422
 z = 2.43526e-19
 z = 132.541
 z = 2.43558e-19
 z = 132.659
 z = 2.4359e-19
 z = 132.777
 z = 2.43622e-19
 z = 132.896
 z = 2.43654e-19
 z = 133.014
 z = 2.43685e-19
 z = 133.133
 z = 2.43717e-19
 z = 130.167
 z = 2.52385e-19
 z = 130.28
 z = 2.52419e-19
 z = 130.394
 z = 2.52453e-19
 z = 130.508
 z = 2.52486e-19
 z = 130.621
 z = 2.5252e-19
 z = 130.735
 z = 2.52554e-19
 z = 130.849
 z = 2.52587e-19
 z = 130.963
 z = 2.52621e-19
 z = 131.076
 z = 2.52655e-19
 z = 131.19
 z = 2.52688e-19
 z = 1.40975
 z = 0.47211
 z = 1.10548
 z = 0.374441
 z = 0.868021
 z = 0.297949
 z = 0.682711
 z = 0.238095
 z = 0.538102
 z = 0.191291
 z = 0.425256
 z = 0.154709
 z = 0.337196
 z = 0.126126
 z = 0.268478
 z = 0.1038
 z = 0.214853
 z = 0.086365
 z = 0.173007
 z = 0.0727512
 z = 136.849
 z = 1.36687e-19
 z = 137.059
 z = 1.36699e-19
 z = 137.27
 z = 1.36711e-19
 z = 137.481
 z = 1.36722e-19
 z = 137.692
 z = 1.36734e-19
 z = 137.903
 z = 1.36745e-19
 z = 138.114
 z = 1.36757e-19
 z = 138.325
 z = 1.36768e-19
 z = 138.536
 z = 1.3678e-19
 z = 138.747
 z = 1.36791e-19
 z = 124.87
 z = 2.89084e-19
 z = 124.961
 z = 2.89103e-19
 z = 125.051
 z = 2.89122e-19
 z = 125.14
 z = 2.89141e-19
 z = 125.23
 z = 2.89161e-19
 z = 125.32
 z = 2.8918e-19
 z = 125.409
 z = 2.89199e-19
 z = 125.499
 z = 2.89219e-19
 z = 125.589
 z = 2.89238e-19
 z = 125.679
 z = 2.89257e-19
Solving chemistry
diagonal:  Solving for rho, Initial residual = 0, Final residual = 0, No Iterations 0
DILUPBiCG:  Solving for Ux, Initial residual = 7.99297e-05, Final residual = 2.33426e-11, No Iterations 1
DILUPBiCG:  Solving for Uy, Initial residual = 7.52221e-05, Final residual = 3.20619e-12, No Iterations 1
DILUPBiCG:  Solving for Uz, Initial residual = 5.19583e-05, Final residual = 1.44286e-11, No Iterations 1
DILUPBiCG:  Solving for iC3H8O, Initial residual = 3.18106e-06, Final residual = 1.50899e-12, No Iterations 1
DILUPBiCG:  Solving for O2, Initial residual = 3.18107e-06, Final residual = 2.71354e-11, No Iterations 1
DILUPBiCG:  Solving for CO2, Initial residual = 0, Final residual = 0, No Iterations 0
DILUPBiCG:  Solving for H2O, Initial residual = 0, Final residual = 0, No Iterations 0
DILUPBiCG:  Solving for hs, Initial residual = 5.56087e-06, Final residual = 1.69014e-12, No Iterations 1
DICPCG:  Solving for pd, Initial residual = 0.0104122, Final residual = 6.56884e-10, No Iterations 189
diagonal:  Solving for rho, Initial residual = 0, Final residual = 0, No Iterations 0
time step continuity errors : sum local = 2.14497e-16, global = -9.04748e-18, cumulative = -2.55382e-15
DICPCG:  Solving for pd, Initial residual = 0.00197652, Final residual = 9.99476e-10, No Iterations 178
diagonal:  Solving for rho, Initial residual = 0, Final residual = 0, No Iterations 0
time step continuity errors : sum local = 2.00356e-16, global = -8.37019e-18, cumulative = -2.5622e-15
DILUPBiCG:  Solving for epsilon, Initial residual = 1.73548e-06, Final residual = 2.80941e-13, No Iterations 1
DILUPBiCG:  Solving for k, Initial residual = 1.4376e-06, Final residual = 3.00468e-13, No Iterations 1

Number of parcels in system.... | 80
Injected liquid mass........... | 0.0664 mg
Liquid Mass in system.......... | 0.0655449 mg
SMD, Dmax...................... | 17.9776 mu, 63.733 mu
Added gas mass................. | 0.00109897 mg
Evaporation Continuity Error... | 0.000243885 mg
ExecutionTime = 28.13 s  ClockTime = 29 s
T max/min : 373 320.948
rho max/min : 1.18216 0.930272
pd max/min : 100075 99944.7

Courant Number mean: 4.35518e-05 max: 0.00654199
 MassFlows:   inlet = -0.000291  outlet = 0.000290917
Time = 8.1e-05

Evolving Spray
 z = 9.46129e-19
 z = 9.46156e-19
 z = 9.46387e-19
 z = 9.46414e-19
 z = 9.46645e-19
 z = 9.46672e-19
 z = 9.46903e-19
 z = 9.4693e-19
 z = 9.47161e-19
 z = 9.47188e-19
 z = 9.47418e-19
 z = 9.47445e-19
 z = 9.47676e-19
 z = 9.47703e-19
 z = 9.47933e-19
 z = 9.4796e-19
 z = 9.4819e-19
 z = 9.48217e-19
 z = 9.48447e-19
 z = 9.48473e-19
 z = 1.50358e-18
 z = 1.50361e-18
 z = 1.50402e-18
 z = 1.50405e-18
 z = 1.50446e-18
 z = 1.50449e-18
 z = 1.5049e-18
 z = 1.50493e-18
 z = 1.50534e-18
 z = 1.50537e-18
 z = 1.50578e-18
 z = 1.50581e-18
 z = 1.50622e-18
 z = 1.50625e-18
 z = 1.50666e-18
 z = 1.50669e-18
 z = 1.5071e-18
 z = 1.50713e-18
 z = 1.50754e-18
 z = 1.50757e-18
 z = 5.7783e-19
 z = 5.77854e-19
 z = 5.77984e-19
 z = 5.78007e-19
 z = 5.78137e-19
 z = 5.78161e-19
 z = 5.7829e-19
 z = 5.78313e-19
 z = 5.78443e-19
 z = 5.78466e-19
 z = 5.78595e-19
 z = 5.78619e-19
 z = 5.78748e-19
 z = 5.78772e-19
 z = 5.78901e-19
 z = 5.78924e-19
 z = 5.79053e-19
 z = 5.79077e-19
 z = 5.79206e-19
 z = 5.79229e-19
 z = 417.808
 z = 5.72326e-20
 z = 417.623
 z = 5.72411e-20
 z = 417.439
 z = 5.72495e-20
 z = 417.257
 z = 5.72578e-20
 z = 417.076
 z = 5.72661e-20
 z = 416.896
 z = 5.72744e-20
 z = 416.718
 z = 5.72825e-20
 z = 416.541
 z = 5.72907e-20
 z = 416.366
 z = 5.72987e-20
 z = 416.191
 z = 5.73067e-20
 z = 1.61093e-18
 z = 1.61096e-18
 z = 1.61141e-18
 z = 1.61144e-18
 z = 1.61188e-18
 z = 1.61191e-18
 z = 1.61236e-18
 z = 1.61239e-18
 z = 1.61283e-18
 z = 1.61286e-18
 z = 1.61331e-18
 z = 1.61334e-18
 z = 1.61378e-18
 z = 1.61381e-18
 z = 1.61426e-18
 z = 1.61429e-18
 z = 1.61473e-18
 z = 1.61476e-18
 z = 1.61521e-18
 z = 1.61524e-18
 z = 483.849
 z = 2.33888e-19
 z = 484.061
 z = 2.33914e-19
 z = 484.272
 z = 2.3394e-19
 z = 484.484
 z = 2.33967e-19
 z = 484.695
 z = 2.33993e-19
 z = 484.907
 z = 2.34019e-19
 z = 485.118
 z = 2.34045e-19
 z = 485.33
 z = 2.34072e-19
 z = 485.541
 z = 2.34098e-19
 z = 485.753
 z = 2.34124e-19
 z = 628.279
 z = 1.69836e-19
 z = 628.543
 z = 1.69856e-19
 z = 628.806
 z = 1.69876e-19
 z = 629.07
 z = 1.69896e-19
 z = 629.334
 z = 1.69917e-19
 z = 629.598
 z = 1.69937e-19
 z = 629.861
 z = 1.69957e-19
 z = 630.125
 z = 1.69977e-19
 z = 630.388
 z = 1.69998e-19
 z = 630.652
 z = 1.70018e-19
 z = 1.04472e-18
 z = 1.04475e-18
 z = 1.04488e-18
 z = 1.04491e-18
 z = 1.04504e-18
 z = 1.04506e-18
 z = 1.04519e-18
 z = 1.04522e-18
 z = 1.04535e-18
 z = 1.04538e-18
 z = 1.04551e-18
 z = 1.04553e-18
 z = 1.04566e-18
 z = 1.04569e-18
 z = 1.04582e-18
 z = 1.04585e-18
 z = 1.04598e-18
 z = 1.046e-18
 z = 1.04613e-18
 z = 1.04616e-18
 z = 712.18
