/*---------------------------------------------------------------------------*\
| =========                 |                                                 |
| \\      /  F ield         | OpenFOAM: The Open Source CFD Toolbox           |
|  \\    /   O peration     | Version:  1.7.x                                 |
|   \\  /    A nd           | Web:      www.OpenFOAM.com                      |
|    \\/     M anipulation  |                                                 |
\*---------------------------------------------------------------------------*/
Build  : 1.7.x-3776603e4c6c
Exec   : rhoSimpleFoam
Date   : Jun 05 2011
Time   : 15:06:57
Host   : piccinini-laptop
PID    : 9864
Case   : /home/piccinini/master/icodieselspray/trunk/sydney/ic.rhoSimpleFoam
nProcs : 1
SigFpe : Enabling floating point exception trapping (FOAM_SIGFPE).

// * * * * * * * * * * * * * * * * * * * * * * * * * * * * * * * * * * * * * //
Create time

Create mesh for time = 0

Reading thermophysical properties

Selecting thermodynamics package hPsiThermo<pureMixture<sutherlandTransport<specieThermo<hConstThermo<perfectGas>>>>>
Reading field U

Reading/calculating face flux field phi

Creating turbulence model

Selecting RAS turbulence model kEpsilon
kEpsilonCoeffs
{
    Cmu             0.09;
    C1              1.44;
    C2              1.92;
    C3              -0.33;
    sigmak          1;
    sigmaEps        1.3;
    Prt             1;
}


Starting time loop

--> FOAM Warning : 
    From function SolverInfo::SolverInfo(const dictionary& dict,const objectRegistry &obr)
    in file SolverInfo/SolverInfo.C at line 88
    Neither LES nor RANS found. Assuming no turbulence
Time = 1

DILUPBiCG:  Solving for Ux, Initial residual = 1, Final residual = 0.054927, No Iterations 1
DILUPBiCG:  Solving for Uy, Initial residual = 1, Final residual = 0.0552886, No Iterations 1
DILUPBiCG:  Solving for Uz, Initial residual = 1, Final residual = 0.0586433, No Iterations 1
DILUPBiCG:  Solving for h, Initial residual = 1, Final residual = 0.00371263, No Iterations 1
DICPCG:  Solving for p, Initial residual = 1, Final residual = 0.00834076, No Iterations 146
time step continuity errors : sum local = 0.00194826, global = -5.58665e-05, cumulative = -5.58665e-05
rho max/min : 1.5 1.16639
DILUPBiCG:  Solving for epsilon, Initial residual = 0.246432, Final residual = 0.00146487, No Iterations 1
DILUPBiCG:  Solving for k, Initial residual = 1, Final residual = 0.0560871, No Iterations 1
ExecutionTime = 0.46 s  ClockTime = 1 s

 MassFlows:   nozzle = -3.11726e-05  coflow = -0.000854077  outlet = 0.000885243
Time = 2

DILUPBiCG:  Solving for Ux, Initial residual = 0.529282, Final residual = 0.0313505, No Iterations 1
DILUPBiCG:  Solving for Uy, Initial residual = 0.303845, Final residual = 0.0139151, No Iterations 1
DILUPBiCG:  Solving for Uz, Initial residual = 0.273243, Final residual = 0.0156921, No Iterations 1
DILUPBiCG:  Solving for h, Initial residual = 0.0328926, Final residual = 0.000810072, No Iterations 1
DICPCG:  Solving for p, Initial residual = 0.0135989, Final residual = 0.000125816, No Iterations 159
time step continuity errors : sum local = 0.00790797, global = 0.000469357, cumulative = 0.000413491
rho max/min : 1.5 1.16639
DILUPBiCG:  Solving for epsilon, Initial residual = 0.00794103, Final residual = 0.000329354, No Iterations 1
DILUPBiCG:  Solving for k, Initial residual = 0.225969, Final residual = 0.0118502, No Iterations 1
ExecutionTime = 0.7 s  ClockTime = 1 s

 MassFlows:   nozzle = -3.7667e-05  coflow = -0.000875205  outlet = 0.000913523
Time = 3

DILUPBiCG:  Solving for Ux, Initial residual = 0.184004, Final residual = 0.00862724, No Iterations 1
DILUPBiCG:  Solving for Uy, Initial residual = 0.132514, Final residual = 0.00587275, No Iterations 1
DILUPBiCG:  Solving for Uz, Initial residual = 0.16364, Final residual = 0.00968031, No Iterations 1
DILUPBiCG:  Solving for h, Initial residual = 0.0297703, Final residual = 0.000365818, No Iterations 1
DICPCG:  Solving for p, Initial residual = 0.00932965, Final residual = 7.6717e-05, No Iterations 178
time step continuity errors : sum local = 0.00569715, global = 3.45544e-06, cumulative = 0.000416946
rho max/min : 1.5 1.04954
DILUPBiCG:  Solving for epsilon, Initial residual = 0.0171219, Final residual = 0.000847192, No Iterations 1
DILUPBiCG:  Solving for k, Initial residual = 0.116695, Final residual = 0.00652651, No Iterations 1
ExecutionTime = 0.96 s  ClockTime = 1 s

 MassFlows:   nozzle = -3.7667e-05  coflow = -0.000875055  outlet = 0.000910601
Time = 4

DILUPBiCG:  Solving for Ux, Initial residual = 0.0489308, Final residual = 0.00189901, No Iterations 1
DILUPBiCG:  Solving for Uy, Initial residual = 0.0309203, Final residual = 0.00216625, No Iterations 1
DILUPBiCG:  Solving for Uz, Initial residual = 0.125854, Final residual = 0.00702439, No Iterations 1
DILUPBiCG:  Solving for h, Initial residual = 0.0176639, Final residual = 0.000189926, No Iterations 1
DICPCG:  Solving for p, Initial residual = 0.0460049, Final residual = 0.000364378, No Iterations 174
time step continuity errors : sum local = 0.00542902, global = 3.37834e-05, cumulative = 0.000450729
rho max/min : 1.5 0.859934
DILUPBiCG:  Solving for epsilon, Initial residual = 0.0226189, Final residual = 0.00126937, No Iterations 1
DILUPBiCG:  Solving for k, Initial residual = 0.067668, Final residual = 0.00337975, No Iterations 1
ExecutionTime = 1.21 s  ClockTime = 2 s

 MassFlows:   nozzle = -3.7667e-05  coflow = -0.000853594  outlet = 0.000885356
Time = 5

DILUPBiCG:  Solving for Ux, Initial residual = 0.123624, Final residual = 0.00768088, No Iterations 1
DILUPBiCG:  Solving for Uy, Initial residual = 0.0610774, Final residual = 0.00425165, No Iterations 1
DILUPBiCG:  Solving for Uz, Initial residual = 0.108299, Final residual = 0.00654594, No Iterations 1
DILUPBiCG:  Solving for h, Initial residual = 0.0313848, Final residual = 0.00128079, No Iterations 1
DICPCG:  Solving for p, Initial residual = 0.0141315, Final residual = 0.000128322, No Iterations 167
time step continuity errors : sum local = 0.0055953, global = 0.000123913, cumulative = 0.000574642
rho max/min : 1.5 1.0686
DILUPBiCG:  Solving for epsilon, Initial residual = 0.0287414, Final residual = 0.00143047, No Iterations 1
DILUPBiCG:  Solving for k, Initial residual = 0.0550861, Final residual = 0.00255236, No Iterations 1
ExecutionTime = 1.46 s  ClockTime = 2 s

 MassFlows:   nozzle = -3.7667e-05  coflow = -0.000833975  outlet = 0.000864194
Time = 6

DILUPBiCG:  Solving for Ux, Initial residual = 0.117348, Final residual = 0.00807581, No Iterations 1
DILUPBiCG:  Solving for Uy, Initial residual = 0.0628399, Final residual = 0.00343314, No Iterations 1
DILUPBiCG:  Solving for Uz, Initial residual = 0.0944622, Final residual = 0.00569902, No Iterations 1
DILUPBiCG:  Solving for h, Initial residual = 0.0254649, Final residual = 0.000369016, No Iterations 1
DICPCG:  Solving for p, Initial residual = 0.0225049, Final residual = 0.000220846, No Iterations 172
time step continuity errors : sum local = 0.00827163, global = 0.000125275, cumulative = 0.000699917
rho max/min : 1.23285 0.75
DILUPBiCG:  Solving for epsilon, Initial residual = 0.0352557, Final residual = 0.00166628, No Iterations 1
DILUPBiCG:  Solving for k, Initial residual = 0.047172, Final residual = 0.00202369, No Iterations 1
ExecutionTime = 1.7 s  ClockTime = 2 s

 MassFlows:   nozzle = -3.7667e-05  coflow = -0.000835929  outlet = 0.00086746
Time = 7

DILUPBiCG:  Solving for Ux, Initial residual = 0.0621134, Final residual = 0.00356699, No Iterations 1
DILUPBiCG:  Solving for Uy, Initial residual = 0.0492304, Final residual = 0.00226677, No Iterations 1
DILUPBiCG:  Solving for Uz, Initial residual = 0.0826659, Final residual = 0.0049513, No Iterations 1
DILUPBiCG:  Solving for h, Initial residual = 0.0258931, Final residual = 0.000823826, No Iterations 1
DICPCG:  Solving for p, Initial residual = 0.0519716, Final residual = 0.000426612, No Iterations 167
time step continuity errors : sum local = 0.00785128, global = 0.000124137, cumulative = 0.000824054
rho max/min : 1.17973 0.75
DILUPBiCG:  Solving for epsilon, Initial residual = 0.0228942, Final residual = 0.00115501, No Iterations 1
DILUPBiCG:  Solving for k, Initial residual = 0.0308665, Final residual = 0.00174904, No Iterations 1
ExecutionTime = 1.95 s  ClockTime = 2 s

 MassFlows:   nozzle = -2.01214e-05  coflow = -0.000854644  outlet = 0.000869893
Time = 8

DILUPBiCG:  Solving for Ux, Initial residual = 0.203879, Final residual = 0.00783074, No Iterations 1
DILUPBiCG:  Solving for Uy, Initial residual = 0.18065, Final residual = 0.00594071, No Iterations 1
DILUPBiCG:  Solving for Uz, Initial residual = 0.0747208, Final residual = 0.00440846, No Iterations 1
DILUPBiCG:  Solving for h, Initial residual = 0.0234434, Final residual = 0.000158139, No Iterations 1
DICPCG:  Solving for p, Initial residual = 0.0181436, Final residual = 0.000168512, No Iterations 158
time step continuity errors : sum local = 0.00619696, global = -0.000173592, cumulative = 0.000650462
rho max/min : 1.21794 0.75
DILUPBiCG:  Solving for epsilon, Initial residual = 0.0195551, Final residual = 0.000980176, No Iterations 1
DILUPBiCG:  Solving for k, Initial residual = 0.0234986, Final residual = 0.00148225, No Iterations 1
ExecutionTime = 2.19 s  ClockTime = 3 s

 MassFlows:   nozzle = -1.88335e-05  coflow = -0.000860428  outlet = 0.000874246
Time = 9

DILUPBiCG:  Solving for Ux, Initial residual = 0.157847, Final residual = 0.00857018, No Iterations 1
DILUPBiCG:  Solving for Uy, Initial residual = 0.164515, Final residual = 0.00782297, No Iterations 1
DILUPBiCG:  Solving for Uz, Initial residual = 0.071092, Final residual = 0.00450868, No Iterations 1
DILUPBiCG:  Solving for h, Initial residual = 0.021169, Final residual = 0.000145939, No Iterations 1
DICPCG:  Solving for p, Initial residual = 0.367708, Final residual = 0.00362647, No Iterations 168
time step continuity errors : sum local = 0.00736282, global = -0.000112456, cumulative = 0.000538006
rho max/min : 1.5 1.16103
DILUPBiCG:  Solving for epsilon, Initial residual = 0.0186519, Final residual = 0.00082975, No Iterations 1
DILUPBiCG:  Solving for k, Initial residual = 0.0200631, Final residual = 0.000777186, No Iterations 1
ExecutionTime = 2.43 s  ClockTime = 3 s

 MassFlows:   nozzle = -2.27567e-05  coflow = -0.000856857  outlet = 0.000872823
Time = 10

DILUPBiCG:  Solving for Ux, Initial residual = 0.097814, Final residual = 0.00275796, No Iterations 1
DILUPBiCG:  Solving for Uy, Initial residual = 0.170945, Final residual = 0.00456413, No Iterations 1
DILUPBiCG:  Solving for Uz, Initial residual = 0.0665764, Final residual = 0.00395077, No Iterations 1
DILUPBiCG:  Solving for h, Initial residual = 0.012379, Final residual = 0.000128993, No Iterations 1
DICPCG:  Solving for p, Initial residual = 0.0139978, Final residual = 0.000125015, No Iterations 170
time step continuity errors : sum local = 0.00604618, global = 0.000152015, cumulative = 0.000690022
rho max/min : 1.5 1.16443
DILUPBiCG:  Solving for epsilon, Initial residual = 0.0238406, Final residual = 0.000886482, No Iterations 1
DILUPBiCG:  Solving for k, Initial residual = 0.0191948, Final residual = 0.000624192, No Iterations 1
ExecutionTime = 2.68 s  ClockTime = 3 s

 MassFlows:   nozzle = -3.7667e-05  coflow = -0.000853719  outlet = 0.000882753
Time = 11

DILUPBiCG:  Solving for Ux, Initial residual = 0.128778, Final residual = 0.00385417, No Iterations 1
DILUPBiCG:  Solving for Uy, Initial residual = 0.189105, Final residual = 0.00675079, No Iterations 1
DILUPBiCG:  Solving for Uz, Initial residual = 0.0624663, Final residual = 0.00365871, No Iterations 1
DILUPBiCG:  Solving for h, Initial residual = 0.0176737, Final residual = 9.5792e-05, No Iterations 1
DICPCG:  Solving for p, Initial residual = 0.00557034, Final residual = 5.41991e-05, No Iterations 168
time step continuity errors : sum local = 0.00504609, global = 3.20447e-05, cumulative = 0.000722067
rho max/min : 1.5 1.09111
DILUPBiCG:  Solving for epsilon, Initial residual = 0.0284128, Final residual = 0.00165249, No Iterations 1
DILUPBiCG:  Solving for k, Initial residual = 0.0220798, Final residual = 0.00115172, No Iterations 1
ExecutionTime = 2.92 s  ClockTime = 3 s

 MassFlows:   nozzle = -3.7667e-05  coflow = -0.000859818  outlet = 0.000887414
Time = 12

DILUPBiCG:  Solving for Ux, Initial residual = 0.0496495, Final residual = 0.00230843, No Iterations 1
DILUPBiCG:  Solving for Uy, Initial residual = 0.0634636, Final residual = 0.00281597, No Iterations 1
DILUPBiCG:  Solving for Uz, Initial residual = 0.0608554, Final residual = 0.00362369, No Iterations 1
DILUPBiCG:  Solving for h, Initial residual = 0.0175787, Final residual = 0.000148944, No Iterations 1
DICPCG:  Solving for p, Initial residual = 0.0173337, Final residual = 0.000164818, No Iterations 152
time step continuity errors : sum local = 0.00583212, global = 0.000148707, cumulative = 0.000870773
rho max/min : 1.16847 0.75
DILUPBiCG:  Solving for epsilon, Initial residual = 0.0284667, Final residual = 0.00157889, No Iterations 1
DILUPBiCG:  Solving for k, Initial residual = 0.0209627, Final residual = 0.000970002, No Iterations 1
ExecutionTime = 3.16 s  ClockTime = 4 s

 MassFlows:   nozzle = -3.7667e-05  coflow = -0.00086145  outlet = 0.000888052
Time = 13

DILUPBiCG:  Solving for Ux, Initial residual = 0.045136, Final residual = 0.00132246, No Iterations 1
DILUPBiCG:  Solving for Uy, Initial residual = 0.0633893, Final residual = 0.00238974, No Iterations 1
DILUPBiCG:  Solving for Uz, Initial residual = 0.057125, Final residual = 0.00337773, No Iterations 1
DILUPBiCG:  Solving for h, Initial residual = 0.0232103, Final residual = 0.000200809, No Iterations 1
DICPCG:  Solving for p, Initial residual = 0.0169132, Final residual = 0.000133679, No Iterations 170
time step continuity errors : sum local = 0.00499682, global = -3.61552e-05, cumulative = 0.000834618
rho max/min : 1.16642 0.75
DILUPBiCG:  Solving for epsilon, Initial residual = 0.0193567, Final residual = 0.0010328, No Iterations 1
DILUPBiCG:  Solving for k, Initial residual = 0.014906, Final residual = 0.00072137, No Iterations 1
ExecutionTime = 3.41 s  ClockTime = 4 s

 MassFlows:   nozzle = -1.88335e-05  coflow = -0.000853874  outlet = 0.000860851
Time = 14

DILUPBiCG:  Solving for Ux, Initial residual = 0.160515, Final residual = 0.00682329, No Iterations 1
DILUPBiCG:  Solving for Uy, Initial residual = 0.241809, Final residual = 0.0098778, No Iterations 1
DILUPBiCG:  Solving for Uz, Initial residual = 0.0551063, Final residual = 0.00343659, No Iterations 1
DILUPBiCG:  Solving for h, Initial residual = 0.0272421, Final residual = 3.92773e-06, No Iterations 2
DICPCG:  Solving for p, Initial residual = 0.00511066, Final residual = 4.56015e-05, No Iterations 169
time step continuity errors : sum local = 0.00500755, global = -1.30448e-05, cumulative = 0.000821573
rho max/min : 1.5 0.892998
DILUPBiCG:  Solving for epsilon, Initial residual = 0.0187643, Final residual = 0.00100681, No Iterations 1
DILUPBiCG:  Solving for k, Initial residual = 0.0144757, Final residual = 0.00076227, No Iterations 1
ExecutionTime = 3.66 s  ClockTime = 4 s

 MassFlows:   nozzle = -1.88335e-05  coflow = -0.000837347  outlet = 0.000844648
Time = 15

DILUPBiCG:  Solving for Ux, Initial residual = 0.15423, Final residual = 0.00735929, No Iterations 1
DILUPBiCG:  Solving for Uy, Initial residual = 0.241059, Final residual = 0.0117927, No Iterations 1
DILUPBiCG:  Solving for Uz, Initial residual = 0.0536063, Final residual = 0.0031394, No Iterations 1
DILUPBiCG:  Solving for h, Initial residual = 0.0213091, Final residual = 0.00011061, No Iterations 1
DICPCG:  Solving for p, Initial residual = 0.0141492, Final residual = 0.000125823, No Iterations 173
time step continuity errors : sum local = 0.00696939, global = -4.36185e-05, cumulative = 0.000777955
rho max/min : 1.5 1.16638
DILUPBiCG:  Solving for epsilon, Initial residual = 0.0194035, Final residual = 0.000738115, No Iterations 1
DILUPBiCG:  Solving for k, Initial residual = 0.0134254, Final residual = 0.000391502, No Iterations 1
ExecutionTime = 3.94 s  ClockTime = 4 s

 MassFlows:   nozzle = -3.72351e-05  coflow = -0.000838751  outlet = 0.000865345
Time = 16

DILUPBiCG:  Solving for Ux, Initial residual = 0.18582, Final residual = 0.00578002, No Iterations 1
DILUPBiCG:  Solving for Uy, Initial residual = 0.288992, Final residual = 0.0102852, No Iterations 1
DILUPBiCG:  Solving for Uz, Initial residual = 0.0516492, Final residual = 0.00337521, No Iterations 1
DILUPBiCG:  Solving for h, Initial residual = 0.0188407, Final residual = 0.000101124, No Iterations 1
DICPCG:  Solving for p, Initial residual = 0.00507448, Final residual = 4.36175e-05, No Iterations 165
time step continuity errors : sum local = 0.00650138, global = -3.76255e-05, cumulative = 0.000740329
rho max/min : 1.5 1.16639
DILUPBiCG:  Solving for epsilon, Initial residual = 0.0241521, Final residual = 0.00112395, No Iterations 1
DILUPBiCG:  Solving for k, Initial residual = 0.0155709, Final residual = 0.000627836, No Iterations 1
ExecutionTime = 4.19 s  ClockTime = 5 s

 MassFlows:   nozzle = -3.7667e-05  coflow = -0.000864874  outlet = 0.000891737
Time = 17

DILUPBiCG:  Solving for Ux, Initial residual = 0.149255, Final residual = 0.00645556, No Iterations 1
DILUPBiCG:  Solving for Uy, Initial residual = 0.141564, Final residual = 0.00602169, No Iterations 1
DILUPBiCG:  Solving for Uz, Initial residual = 0.0488518, Final residual = 0.0029005, No Iterations 1
DILUPBiCG:  Solving for h, Initial residual = 0.0272632, Final residual = 0.000411039, No Iterations 1
DICPCG:  Solving for p, Initial residual = 0.00447633, Final residual = 4.10428e-05, No Iterations 173
time step continuity errors : sum local = 0.0060527, global = 5.35408e-05, cumulative = 0.00079387
rho max/min : 1.23365 0.75
DILUPBiCG:  Solving for epsilon, Initial residual = 0.0237612, Final residual = 0.0012426, No Iterations 1
DILUPBiCG:  Solving for k, Initial residual = 0.0151162, Final residual = 0.000735533, No Iterations 1
ExecutionTime = 4.44 s  ClockTime = 5 s

 MassFlows:   nozzle = -3.7667e-05  coflow = -0.000878462  outlet = 0.000903827
Time = 18

DILUPBiCG:  Solving for Ux, Initial residual = 0.0982645, Final residual = 0.00428359, No Iterations 1
DILUPBiCG:  Solving for Uy, Initial residual = 0.0927823, Final residual = 0.00351944, No Iterations 1
DILUPBiCG:  Solving for Uz, Initial residual = 0.0465135, Final residual = 0.0027712, No Iterations 1
DILUPBiCG:  Solving for h, Initial residual = 0.0343994, Final residual = 0.000597318, No Iterations 1
DICPCG:  Solving for p, Initial residual = 0.600431, Final residual = 0.00569623, No Iterations 169
time step continuity errors : sum local = 0.00921443, global = -1.6505e-05, cumulative = 0.000777365
rho max/min : 1.1664 0.75
DILUPBiCG:  Solving for epsilon, Initial residual = 0.0158889, Final residual = 0.000919435, No Iterations 1
DILUPBiCG:  Solving for k, Initial residual = 0.0106802, Final residual = 0.00052616, No Iterations 1
ExecutionTime = 4.68 s  ClockTime = 5 s

 MassFlows:   nozzle = -1.88335e-05  coflow = -0.000864419  outlet = 0.000868998
Time = 19

DILUPBiCG:  Solving for Ux, Initial residual = 0.163787, Final residual = 0.00710252, No Iterations 1
DILUPBiCG:  Solving for Uy, Initial residual = 0.252999, Final residual = 0.0101366, No Iterations 1
DILUPBiCG:  Solving for Uz, Initial residual = 0.0467416, Final residual = 0.00288847, No Iterations 1
DILUPBiCG:  Solving for h, Initial residual = 0.0307569, Final residual = 0.000377027, No Iterations 1
DICPCG:  Solving for p, Initial residual = 0.00579437, Final residual = 5.45022e-05, No Iterations 155
time step continuity errors : sum local = 0.00902696, global = 0.000269705, cumulative = 0.00104707
rho max/min : 1.5 0.917714
DILUPBiCG:  Solving for epsilon, Initial residual = 0.0160756, Final residual = 0.000918731, No Iterations 1
DILUPBiCG:  Solving for k, Initial residual = 0.0107159, Final residual = 0.000608362, No Iterations 1
ExecutionTime = 4.91 s  ClockTime = 5 s

 MassFlows:   nozzle = -1.88335e-05  coflow = -0.00083357  outlet = 0.00083768
Time = 20

DILUPBiCG:  Solving for Ux, Initial residual = 0.226163, Final residual = 0.0102125, No Iterations 1
DILUPBiCG:  Solving for Uy, Initial residual = 0.347408, Final residual = 0.0163294, No Iterations 1
DILUPBiCG:  Solving for Uz, Initial residual = 0.045233, Final residual = 0.00256568, No Iterations 1
DILUPBiCG:  Solving for h, Initial residual = 0.0298621, Final residual = 0.00018088, No Iterations 1
DICPCG:  Solving for p, Initial residual = 0.00759985, Final residual = 6.98523e-05, No Iterations 172
time step continuity errors : sum local = 0.00868083, global = -9.01576e-05, cumulative = 0.000956912
rho max/min : 1.5 1.16326
DILUPBiCG:  Solving for epsilon, Initial residual = 0.0166351, Final residual = 0.000672483, No Iterations 1
DILUPBiCG:  Solving for k, Initial residual = 0.0103841, Final residual = 0.000333406, No Iterations 1
ExecutionTime = 5.18 s  ClockTime = 6 s

 MassFlows:   nozzle = -3.7667e-05  coflow = -0.000827627  outlet = 0.000851731
Time = 21

DILUPBiCG:  Solving for Ux, Initial residual = 0.174217, Final residual = 0.0045632, No Iterations 1
DILUPBiCG:  Solving for Uy, Initial residual = 0.304862, Final residual = 0.00977862, No Iterations 1
DILUPBiCG:  Solving for Uz, Initial residual = 0.0435715, Final residual = 0.0028101, No Iterations 1
DILUPBiCG:  Solving for h, Initial residual = 0.0172693, Final residual = 7.95168e-05, No Iterations 1
DICPCG:  Solving for p, Initial residual = 0.00781439, Final residual = 7.56058e-05, No Iterations 162
time step continuity errors : sum local = 0.0124409, global = -0.000233255, cumulative = 0.000723657
rho max/min : 1.5 1.16639
DILUPBiCG:  Solving for epsilon, Initial residual = 0.0200154, Final residual = 0.000928835, No Iterations 1
DILUPBiCG:  Solving for k, Initial residual = 0.0119114, Final residual = 0.000479768, No Iterations 1
ExecutionTime = 5.42 s  ClockTime = 6 s

 MassFlows:   nozzle = -3.7667e-05  coflow = -0.000858081  outlet = 0.000882797
Time = 22

DILUPBiCG:  Solving for Ux, Initial residual = 0.176912, Final residual = 0.00754481, No Iterations 1
DILUPBiCG:  Solving for Uy, Initial residual = 0.164895, Final residual = 0.00688836, No Iterations 1
DILUPBiCG:  Solving for Uz, Initial residual = 0.0416082, Final residual = 0.00244073, No Iterations 1
DILUPBiCG:  Solving for h, Initial residual = 0.0289385, Final residual = 0.000318506, No Iterations 1
DICPCG:  Solving for p, Initial residual = 0.0049252, Final residual = 4.87651e-05, No Iterations 126
time step continuity errors : sum local = 0.00979332, global = 0.00207386, cumulative = 0.00279752
rho max/min : 1.25867 0.75
DILUPBiCG:  Solving for epsilon, Initial residual = 0.0199935, Final residual = 0.00104012, No Iterations 1
DILUPBiCG:  Solving for k, Initial residual = 0.0118526, Final residual = 0.000586012, No Iterations 1
ExecutionTime = 5.64 s  ClockTime = 6 s

 MassFlows:   nozzle = -3.7667e-05  coflow = -0.000881025  outlet = 0.000905232
Time = 23

DILUPBiCG:  Solving for Ux, Initial residual = 0.146828, Final residual = 0.0068218, No Iterations 1
DILUPBiCG:  Solving for Uy, Initial residual = 0.125623, Final residual = 0.00477937, No Iterations 1
DILUPBiCG:  Solving for Uz, Initial residual = 0.0407217, Final residual = 0.00234831, No Iterations 1
DILUPBiCG:  Solving for h, Initial residual = 0.0428506, Final residual = 0.000782703, No Iterations 1
DICPCG:  Solving for p, Initial residual = 0.0345862, Final residual = 0.000325621, No Iterations 168
time step continuity errors : sum local = 0.0119006, global = 1.75336e-05, cumulative = 0.00281505
rho max/min : 1.16642 0.75
DILUPBiCG:  Solving for epsilon, Initial residual = 0.013881, Final residual = 0.000816083, No Iterations 1
DILUPBiCG:  Solving for k, Initial residual = 0.00842993, Final residual = 0.00043364, No Iterations 1
ExecutionTime = 5.88 s  ClockTime = 6 s

 MassFlows:   nozzle = -1.88335e-05  coflow = -0.000871918  outlet = 0.000875123
Time = 24

DILUPBiCG:  Solving for Ux, Initial residual = 0.127646, Final residual = 0.00534847, No Iterations 1
DILUPBiCG:  Solving for Uy, Initial residual = 0.254818, Final residual = 0.0100113, No Iterations 1
DILUPBiCG:  Solving for Uz, Initial residual = 0.0401346, Final residual = 0.00248974, No Iterations 1
DILUPBiCG:  Solving for h, Initial residual = 0.025905, Final residual = 0.000519597, No Iterations 1
DICPCG:  Solving for p, Initial residual = 0.00766197, Final residual = 6.94625e-05, No Iterations 158
time step continuity errors : sum local = 0.0122141, global = -3.33486e-05, cumulative = 0.0027817
rho max/min : 1.5 0.91829
DILUPBiCG:  Solving for epsilon, Initial residual = 0.0141866, Final residual = 0.000795775, No Iterations 1
DILUPBiCG:  Solving for k, Initial residual = 0.00855584, Final residual = 0.000484753, No Iterations 1
ExecutionTime = 6.13 s  ClockTime = 7 s

 MassFlows:   nozzle = -1.88335e-05  coflow = -0.000838749  outlet = 0.000840682
Time = 25

DILUPBiCG:  Solving for Ux, Initial residual = 0.216013, Final residual = 0.00954528, No Iterations 1
DILUPBiCG:  Solving for Uy, Initial residual = 0.391466, Final residual = 0.0182985, No Iterations 1
DILUPBiCG:  Solving for Uz, Initial residual = 0.0397748, Final residual = 0.00230561, No Iterations 1
DILUPBiCG:  Solving for h, Initial residual = 0.0300756, Final residual = 0.000186829, No Iterations 1
DICPCG:  Solving for p, Initial residual = 0.00729393, Final residual = 7.07057e-05, No Iterations 170
time step continuity errors : sum local = 0.0108523, global = -7.76108e-05, cumulative = 0.00270409
rho max/min : 1.5 1.15312
DILUPBiCG:  Solving for epsilon, Initial residual = 0.0148074, Final residual = 0.000572546, No Iterations 1
DILUPBiCG:  Solving for k, Initial residual = 0.0084952, Final residual = 0.000283394, No Iterations 1
ExecutionTime = 6.37 s  ClockTime = 7 s

 MassFlows:   nozzle = -3.7667e-05  coflow = -0.000826509  outlet = 0.000847505
Time = 26

DILUPBiCG:  Solving for Ux, Initial residual = 0.19035, Final residual = 0.0058844, No Iterations 1
DILUPBiCG:  Solving for Uy, Initial residual = 0.322602, Final residual = 0.0101322, No Iterations 1
DILUPBiCG:  Solving for Uz, Initial residual = 0.0389548, Final residual = 0.00241709, No Iterations 1
DILUPBiCG:  Solving for h, Initial residual = 0.0189779, Final residual = 0.000102745, No Iterations 1
DICPCG:  Solving for p, Initial residual = 0.00879734, Final residual = 7.91282e-05, No Iterations 162
time step continuity errors : sum local = 0.013456, global = -0.000240798, cumulative = 0.00246329
rho max/min : 1.5 1.16639
DILUPBiCG:  Solving for epsilon, Initial residual = 0.0171609, Final residual = 0.000748546, No Iterations 1
DILUPBiCG:  Solving for k, Initial residual = 0.00975583, Final residual = 0.000377782, No Iterations 1
ExecutionTime = 6.61 s  ClockTime = 7 s

 MassFlows:   nozzle = -3.7667e-05  coflow = -0.000852531  outlet = 0.000873863
Time = 27

DILUPBiCG:  Solving for Ux, Initial residual = 0.158444, Final residual = 0.00672838, No Iterations 1
DILUPBiCG:  Solving for Uy, Initial residual = 0.170371, Final residual = 0.00706302, No Iterations 1
DILUPBiCG:  Solving for Uz, Initial residual = 0.0378401, Final residual = 0.00219147, No Iterations 1
DILUPBiCG:  Solving for h, Initial residual = 0.0256099, Final residual = 0.000499641, No Iterations 1
DICPCG:  Solving for p, Initial residual = 0.00586468, Final residual = 5.67579e-05, No Iterations 168
time step continuity errors : sum local = 0.0122505, global = 1.00378e-05, cumulative = 0.00247333
rho max/min : 1.27112 0.75
DILUPBiCG:  Solving for epsilon, Initial residual = 0.0171852, Final residual = 0.000865217, No Iterations 1
DILUPBiCG:  Solving for k, Initial residual = 0.00960341, Final residual = 0.000477849, No Iterations 1
ExecutionTime = 6.86 s  ClockTime = 7 s

 MassFlows:   nozzle = -3.7667e-05  coflow = -0.000876654  outlet = 0.000897565
Time = 28

DILUPBiCG:  Solving for Ux, Initial residual = 0.158003, Final residual = 0.00735781, No Iterations 1
DILUPBiCG:  Solving for Uy, Initial residual = 0.136832, Final residual = 0.00516681, No Iterations 1
DILUPBiCG:  Solving for Uz, Initial residual = 0.0377558, Final residual = 0.00233245, No Iterations 1
DILUPBiCG:  Solving for h, Initial residual = 0.0426152, Final residual = 0.00230705, No Iterations 1
DICPCG:  Solving for p, Initial residual = 0.0276933, Final residual = 0.000241925, No Iterations 168
time step continuity errors : sum local = 0.0110368, global = 6.95618e-05, cumulative = 0.00254289
rho max/min : 1.16754 0.75
DILUPBiCG:  Solving for epsilon, Initial residual = 0.0121803, Final residual = 0.000732226, No Iterations 1
DILUPBiCG:  Solving for k, Initial residual = 0.00681961, Final residual = 0.000366417, No Iterations 1
ExecutionTime = 7.12 s  ClockTime = 8 s

 MassFlows:   nozzle = -1.88335e-05  coflow = -0.000872609  outlet = 0.000873294
Time = 29

DILUPBiCG:  Solving for Ux, Initial residual = 0.109588, Final residual = 0.00428112, No Iterations 1
DILUPBiCG:  Solving for Uy, Initial residual = 0.255374, Final residual = 0.00993026, No Iterations 1
DILUPBiCG:  Solving for Uz, Initial residual = 0.0383694, Final residual = 0.00222341, No Iterations 1
DILUPBiCG:  Solving for h, Initial residual = 0.0225234, Final residual = 0.000537114, No Iterations 1
DICPCG:  Solving for p, Initial residual = 0.00829615, Final residual = 7.0432e-05, No Iterations 158
time step continuity errors : sum local = 0.0125008, global = 8.73603e-05, cumulative = 0.00263025
rho max/min : 1.5 0.922792
DILUPBiCG:  Solving for epsilon, Initial residual = 0.0128341, Final residual = 0.000728309, No Iterations 1
DILUPBiCG:  Solving for k, Initial residual = 0.00700745, Final residual = 0.000402131, No Iterations 1
ExecutionTime = 7.36 s  ClockTime = 8 s

 MassFlows:   nozzle = -1.88335e-05  coflow = -0.000843543  outlet = 0.000843042
Time = 30

DILUPBiCG:  Solving for Ux, Initial residual = 0.186081, Final residual = 0.00812367, No Iterations 1
DILUPBiCG:  Solving for Uy, Initial residual = 0.407289, Final residual = 0.0190063, No Iterations 1
DILUPBiCG:  Solving for Uz, Initial residual = 0.0372046, Final residual = 0.00226955, No Iterations 1
DILUPBiCG:  Solving for h, Initial residual = 0.0269819, Final residual = 0.000166455, No Iterations 1
DICPCG:  Solving for p, Initial residual = 0.00817895, Final residual = 6.77723e-05, No Iterations 169
time step continuity errors : sum local = 0.0103903, global = -0.00010513, cumulative = 0.00252512
rho max/min : 1.5 1.14856
DILUPBiCG:  Solving for epsilon, Initial residual = 0.0132091, Final residual = 0.000494921, No Iterations 1
DILUPBiCG:  Solving for k, Initial residual = 0.0071332, Final residual = 0.000243029, No Iterations 1
ExecutionTime = 7.61 s  ClockTime = 8 s

 MassFlows:   nozzle = -3.7667e-05  coflow = -0.000830146  outlet = 0.000848165
Time = 31

DILUPBiCG:  Solving for Ux, Initial residual = 0.184623, Final residual = 0.00588597, No Iterations 1
DILUPBiCG:  Solving for Uy, Initial residual = 0.342411, Final residual = 0.0106134, No Iterations 1
DILUPBiCG:  Solving for Uz, Initial residual = 0.0361096, Final residual = 0.00211243, No Iterations 1
DILUPBiCG:  Solving for h, Initial residual = 0.018765, Final residual = 0.00010533, No Iterations 1
DICPCG:  Solving for p, Initial residual = 0.00741804, Final residual = 6.86203e-05, No Iterations 162
time step continuity errors : sum local = 0.0132254, global = -0.000213399, cumulative = 0.00231172
rho max/min : 1.5 1.16637
DILUPBiCG:  Solving for epsilon, Initial residual = 0.0154353, Final residual = 0.000621206, No Iterations 1
DILUPBiCG:  Solving for k, Initial residual = 0.00833256, Final residual = 0.000307734, No Iterations 1
ExecutionTime = 7.87 s  ClockTime = 8 s

 MassFlows:   nozzle = -3.7667e-05  coflow = -0.000851287  outlet = 0.000869223
Time = 32

DILUPBiCG:  Solving for Ux, Initial residual = 0.130455, Final residual = 0.00555199, No Iterations 1
DILUPBiCG:  Solving for Uy, Initial residual = 0.171131, Final residual = 0.00706306, No Iterations 1
DILUPBiCG:  Solving for Uz, Initial residual = 0.0349425, Final residual = 0.00208626, No Iterations 1
DILUPBiCG:  Solving for h, Initial residual = 0.0221291, Final residual = 0.000115721, No Iterations 1
DICPCG:  Solving for p, Initial residual = 0.00602203, Final residual = 5.88751e-05, No Iterations 163
time step continuity errors : sum local = 0.012911, global = 0.000689549, cumulative = 0.00300127
rho max/min : 1.27281 0.75
DILUPBiCG:  Solving for epsilon, Initial residual = 0.0152059, Final residual = 0.000722909, No Iterations 1
DILUPBiCG:  Solving for k, Initial residual = 0.00806551, Final residual = 0.000401875, No Iterations 1
ExecutionTime = 8.13 s  ClockTime = 9 s

 MassFlows:   nozzle = -3.7667e-05  coflow = -0.00087227  outlet = 0.000889851
Time = 33

DILUPBiCG:  Solving for Ux, Initial residual = 0.146489, Final residual = 0.00668833, No Iterations 1
DILUPBiCG:  Solving for Uy, Initial residual = 0.139459, Final residual = 0.00515745, No Iterations 1
DILUPBiCG:  Solving for Uz, Initial residual = 0.0334438, Final residual = 0.00197747, No Iterations 1
DILUPBiCG:  Solving for h, Initial residual = 0.0387283, Final residual = 0.000820221, No Iterations 1
DICPCG:  Solving for p, Initial residual = 0.0400056, Final residual = 0.000374097, No Iterations 167
time step continuity errors : sum local = 0.0115798, global = 7.65695e-05, cumulative = 0.00307784
rho max/min : 1.16841 0.75
DILUPBiCG:  Solving for epsilon, Initial residual = 0.0107835, Final residual = 0.000668979, No Iterations 1
DILUPBiCG:  Solving for k, Initial residual = 0.00563977, Final residual = 0.000320272, No Iterations 1
ExecutionTime = 8.4 s  ClockTime = 9 s

 MassFlows:   nozzle = -1.88335e-05  coflow = -0.000869931  outlet = 0.000867576
Time = 34

DILUPBiCG:  Solving for Ux, Initial residual = 0.108285, Final residual = 0.00412271, No Iterations 1
DILUPBiCG:  Solving for Uy, Initial residual = 0.257575, Final residual = 0.00994285, No Iterations 1
DILUPBiCG:  Solving for Uz, Initial residual = 0.0343713, Final residual = 0.00198533, No Iterations 1
DILUPBiCG:  Solving for h, Initial residual = 0.021256, Final residual = 0.000298081, No Iterations 1
DICPCG:  Solving for p, Initial residual = 0.00731141, Final residual = 7.18651e-05, No Iterations 156
time step continuity errors : sum local = 0.0137362, global = 9.11334e-05, cumulative = 0.00316898
rho max/min : 1.5 0.930645
DILUPBiCG:  Solving for epsilon, Initial residual = 0.0115569, Final residual = 0.000670822, No Iterations 1
DILUPBiCG:  Solving for k, Initial residual = 0.00583877, Final residual = 0.00034511, No Iterations 1
ExecutionTime = 8.64 s  ClockTime = 9 s

 MassFlows:   nozzle = -1.88335e-05  coflow = -0.000845413  outlet = 0.000842236
Time = 35

DILUPBiCG:  Solving for Ux, Initial residual = 0.164596, Final residual = 0.00717915, No Iterations 1
DILUPBiCG:  Solving for Uy, Initial residual = 0.417381, Final residual = 0.0194299, No Iterations 1
DILUPBiCG:  Solving for Uz, Initial residual = 0.033672, Final residual = 0.00194504, No Iterations 1
DILUPBiCG:  Solving for h, Initial residual = 0.0240061, Final residual = 0.000142412, No Iterations 1
DICPCG:  Solving for p, Initial residual = 0.00874299, Final residual = 6.7611e-05, No Iterations 168
time step continuity errors : sum local = 0.00975657, global = -0.000139341, cumulative = 0.00302963
rho max/min : 1.5 1.14886
DILUPBiCG:  Solving for epsilon, Initial residual = 0.011818, Final residual = 0.000437922, No Iterations 1
DILUPBiCG:  Solving for k, Initial residual = 0.00608292, Final residual = 0.000214693, No Iterations 1
ExecutionTime = 8.89 s  ClockTime = 9 s

 MassFlows:   nozzle = -3.7667e-05  coflow = -0.000833915  outlet = 0.000849274
Time = 36

DILUPBiCG:  Solving for Ux, Initial residual = 0.168515, Final residual = 0.00518783, No Iterations 1
DILUPBiCG:  Solving for Uy, Initial residual = 0.360313, Final residual = 0.0109836, No Iterations 1
DILUPBiCG:  Solving for Uz, Initial residual = 0.0334301, Final residual = 0.00196198, No Iterations 1
DILUPBiCG:  Solving for h, Initial residual = 0.0172337, Final residual = 9.69987e-05, No Iterations 1
DICPCG:  Solving for p, Initial residual = 0.00563575, Final residual = 5.07707e-05, No Iterations 162
time step continuity errors : sum local = 0.0115927, global = -0.000195013, cumulative = 0.00283462
rho max/min : 1.5 1.16635
DILUPBiCG:  Solving for epsilon, Initial residual = 0.013906, Final residual = 0.000531773, No Iterations 1
DILUPBiCG:  Solving for k, Initial residual = 0.0072151, Final residual = 0.000258172, No Iterations 1
ExecutionTime = 9.15 s  ClockTime = 10 s

 MassFlows:   nozzle = -3.7667e-05  coflow = -0.000852363  outlet = 0.000867507
Time = 37

DILUPBiCG:  Solving for Ux, Initial residual = 0.114315, Final residual = 0.0048319, No Iterations 1
DILUPBiCG:  Solving for Uy, Initial residual = 0.173011, Final residual = 0.00711468, No Iterations 1
DILUPBiCG:  Solving for Uz, Initial residual = 0.03179, Final residual = 0.0018729, No Iterations 1
DILUPBiCG:  Solving for h, Initial residual = 0.0199214, Final residual = 0.000114286, No Iterations 1
DICPCG:  Solving for p, Initial residual = 0.00537683, Final residual = 4.82444e-05, No Iterations 166
time step continuity errors : sum local = 0.0111014, global = 0.000336667, cumulative = 0.00317129
rho max/min : 1.27144 0.75
DILUPBiCG:  Solving for epsilon, Initial residual = 0.0135761, Final residual = 0.000611469, No Iterations 1
DILUPBiCG:  Solving for k, Initial residual = 0.00696993, Final residual = 0.000342696, No Iterations 1
ExecutionTime = 9.4 s  ClockTime = 10 s

 MassFlows:   nozzle = -3.7667e-05  coflow = -0.000869865  outlet = 0.000884583
Time = 38

DILUPBiCG:  Solving for Ux, Initial residual = 0.128658, Final residual = 0.00576173, No Iterations 1
DILUPBiCG:  Solving for Uy, Initial residual = 0.138807, Final residual = 0.00502158, No Iterations 1
DILUPBiCG:  Solving for Uz, Initial residual = 0.0321165, Final residual = 0.00180535, No Iterations 1
DILUPBiCG:  Solving for h, Initial residual = 0.034648, Final residual = 0.000436728, No Iterations 1
DICPCG:  Solving for p, Initial residual = 0.101938, Final residual = 0.000869906, No Iterations 166
time step continuity errors : sum local = 0.010386, global = 0.000119665, cumulative = 0.00329095
rho max/min : 1.16783 0.75
DILUPBiCG:  Solving for epsilon, Initial residual = 0.00967666, Final residual = 0.000603224, No Iterations 1
DILUPBiCG:  Solving for k, Initial residual = 0.00482902, Final residual = 0.000280713, No Iterations 1
ExecutionTime = 9.63 s  ClockTime = 10 s

 MassFlows:   nozzle = -1.88335e-05  coflow = -0.000867066  outlet = 0.000862151
Time = 39

DILUPBiCG:  Solving for Ux, Initial residual = 0.103694, Final residual = 0.00389744, No Iterations 1
DILUPBiCG:  Solving for Uy, Initial residual = 0.259256, Final residual = 0.00993198, No Iterations 1
DILUPBiCG:  Solving for Uz, Initial residual = 0.0317485, Final residual = 0.00171346, No Iterations 1
DILUPBiCG:  Solving for h, Initial residual = 0.0197457, Final residual = 6.84267e-07, No Iterations 2
DICPCG:  Solving for p, Initial residual = 0.0058687, Final residual = 5.11199e-05, No Iterations 156
time step continuity errors : sum local = 0.0109529, global = 8.5282e-05, cumulative = 0.00337624
rho max/min : 1.5 0.935381
DILUPBiCG:  Solving for epsilon, Initial residual = 0.0104998, Final residual = 0.000611974, No Iterations 1
DILUPBiCG:  Solving for k, Initial residual = 0.00501111, Final residual = 0.000299909, No Iterations 1
ExecutionTime = 9.88 s  ClockTime = 10 s

 MassFlows:   nozzle = -1.88335e-05  coflow = -0.000845502  outlet = 0.000840067
Time = 40

DILUPBiCG:  Solving for Ux, Initial residual = 0.151662, Final residual = 0.00661753, No Iterations 1
DILUPBiCG:  Solving for Uy, Initial residual = 0.424597, Final residual = 0.019708, No Iterations 1
DILUPBiCG:  Solving for Uz, Initial residual = 0.032175, Final residual = 0.0019313, No Iterations 1
DILUPBiCG:  Solving for h, Initial residual = 0.0217975, Final residual = 0.000123673, No Iterations 1
DICPCG:  Solving for p, Initial residual = 0.00838412, Final residual = 6.88726e-05, No Iterations 167
time step continuity errors : sum local = 0.00967685, global = -0.000159452, cumulative = 0.00321678
rho max/min : 1.5 1.15065
DILUPBiCG:  Solving for epsilon, Initial residual = 0.0106282, Final residual = 0.000384308, No Iterations 1
DILUPBiCG:  Solving for k, Initial residual = 0.0052769, Final residual = 0.000187947, No Iterations 1
ExecutionTime = 10.12 s  ClockTime = 11 s

 MassFlows:   nozzle = -3.76274e-05  coflow = -0.000836356  outlet = 0.000849556
Time = 41

DILUPBiCG:  Solving for Ux, Initial residual = 0.153091, Final residual = 0.00444876, No Iterations 1
DILUPBiCG:  Solving for Uy, Initial residual = 0.375364, Final residual = 0.0112529, No Iterations 1
DILUPBiCG:  Solving for Uz, Initial residual = 0.0314085, Final residual = 0.00172103, No Iterations 1
DILUPBiCG:  Solving for h, Initial residual = 0.0155722, Final residual = 8.6525e-05, No Iterations 1
DICPCG:  Solving for p, Initial residual = 0.00447359, Final residual = 4.31248e-05, No Iterations 161
time step continuity errors : sum local = 0.0113821, global = -0.000235424, cumulative = 0.00298136
rho max/min : 1.5 1.16637
DILUPBiCG:  Solving for epsilon, Initial residual = 0.0126383, Final residual = 0.000460573, No Iterations 1
DILUPBiCG:  Solving for k, Initial residual = 0.00636229, Final residual = 0.000220197, No Iterations 1
ExecutionTime = 10.37 s  ClockTime = 11 s

 MassFlows:   nozzle = -3.7667e-05  coflow = -0.000853796  outlet = 0.000866861
Time = 42

DILUPBiCG:  Solving for Ux, Initial residual = 0.106633, Final residual = 0.0045315, No Iterations 1
DILUPBiCG:  Solving for Uy, Initial residual = 0.174873, Final residual = 0.0071527, No Iterations 1
DILUPBiCG:  Solving for Uz, Initial residual = 0.0305259, Final residual = 0.00164765, No Iterations 1
DILUPBiCG:  Solving for h, Initial residual = 0.0185216, Final residual = 0.00011029, No Iterations 1
DICPCG:  Solving for p, Initial residual = 0.00456521, Final residual = 4.5351e-05, No Iterations 164
time step continuity errors : sum local = 0.0111819, global = 0.000465117, cumulative = 0.00344648
rho max/min : 1.26936 0.75
DILUPBiCG:  Solving for epsilon, Initial residual = 0.0121551, Final residual = 0.000524776, No Iterations 1
DILUPBiCG:  Solving for k, Initial residual = 0.0061211, Final residual = 0.000295344, No Iterations 1
ExecutionTime = 10.6 s  ClockTime = 11 s

 MassFlows:   nozzle = -3.7667e-05  coflow = -0.000868865  outlet = 0.000881582
Time = 43

DILUPBiCG:  Solving for Ux, Initial residual = 0.114979, Final residual = 0.00502475, No Iterations 1
DILUPBiCG:  Solving for Uy, Initial residual = 0.137333, Final residual = 0.00488225, No Iterations 1
DILUPBiCG:  Solving for Uz, Initial residual = 0.0294623, Final residual = 0.00172919, No Iterations 1
DILUPBiCG:  Solving for h, Initial residual = 0.0313417, Final residual = 0.000336346, No Iterations 1
DICPCG:  Solving for p, Initial residual = 0.234162, Final residual = 0.00205254, No Iterations 165
time step continuity errors : sum local = 0.0101093, global = 0.000174188, cumulative = 0.00362067
rho max/min : 1.16694 0.75
DILUPBiCG:  Solving for epsilon, Initial residual = 0.00865238, Final residual = 0.00054843, No Iterations 1
DILUPBiCG:  Solving for k, Initial residual = 0.00418244, Final residual = 0.000250738, No Iterations 1
ExecutionTime = 10.84 s  ClockTime = 11 s

 MassFlows:   nozzle = -1.88335e-05  coflow = -0.00086507  outlet = 0.000858294
Time = 44

DILUPBiCG:  Solving for Ux, Initial residual = 0.0985749, Final residual = 0.00368421, No Iterations 1
DILUPBiCG:  Solving for Uy, Initial residual = 0.261095, Final residual = 0.00993559, No Iterations 1
DILUPBiCG:  Solving for Uz, Initial residual = 0.0295066, Final residual = 0.00164709, No Iterations 1
DILUPBiCG:  Solving for h, Initial residual = 0.0183332, Final residual = 0.000382977, No Iterations 1
DICPCG:  Solving for p, Initial residual = 0.00480659, Final residual = 3.58086e-05, No Iterations 156
time step continuity errors : sum local = 0.00853503, global = 2.32976e-05, cumulative = 0.00364396
rho max/min : 1.5 0.935908
DILUPBiCG:  Solving for epsilon, Initial residual = 0.00953316, Final residual = 0.000563801, No Iterations 1
DILUPBiCG:  Solving for k, Initial residual = 0.00435406, Final residual = 0.000266876, No Iterations 1
ExecutionTime = 11.07 s  ClockTime = 12 s

 MassFlows:   nozzle = -1.88335e-05  coflow = -0.000845116  outlet = 0.000837969
Time = 45

DILUPBiCG:  Solving for Ux, Initial residual = 0.144316, Final residual = 0.00629656, No Iterations 1
DILUPBiCG:  Solving for Uy, Initial residual = 0.431058, Final residual = 0.0199477, No Iterations 1
DILUPBiCG:  Solving for Uz, Initial residual = 0.030037, Final residual = 0.0016491, No Iterations 1
DILUPBiCG:  Solving for h, Initial residual = 0.0202262, Final residual = 0.000107979, No Iterations 1
DICPCG:  Solving for p, Initial residual = 0.00763355, Final residual = 7.49992e-05, No Iterations 166
time step continuity errors : sum local = 0.0106444, global = -0.000201774, cumulative = 0.00344219
rho max/min : 1.5 1.15232
DILUPBiCG:  Solving for epsilon, Initial residual = 0.00958665, Final residual = 0.000341138, No Iterations 1
DILUPBiCG:  Solving for k, Initial residual = 0.00462552, Final residual = 0.00016547, No Iterations 1
ExecutionTime = 11.31 s  ClockTime = 12 s

 MassFlows:   nozzle = -3.75358e-05  coflow = -0.000837745  outlet = 0.000849261
Time = 46

DILUPBiCG:  Solving for Ux, Initial residual = 0.142377, Final residual = 0.0039361, No Iterations 1
DILUPBiCG:  Solving for Uy, Initial residual = 0.389986, Final residual = 0.0115549, No Iterations 1
DILUPBiCG:  Solving for Uz, Initial residual = 0.0293517, Final residual = 0.00160798, No Iterations 1
DILUPBiCG:  Solving for h, Initial residual = 0.0142017, Final residual = 7.76169e-05, No Iterations 1
DICPCG:  Solving for p, Initial residual = 0.00380577, Final residual = 3.6305e-05, No Iterations 160
time step continuity errors : sum local = 0.0106383, global = -0.000233816, cumulative = 0.00320837
rho max/min : 1.5 1.16639
DILUPBiCG:  Solving for epsilon, Initial residual = 0.0115572, Final residual = 0.000406409, No Iterations 1
DILUPBiCG:  Solving for k, Initial residual = 0.00568159, Final residual = 0.000191447, No Iterations 1
ExecutionTime = 11.54 s  ClockTime = 12 s

 MassFlows:   nozzle = -3.7667e-05  coflow = -0.000854833  outlet = 0.000866415
Time = 47

DILUPBiCG:  Solving for Ux, Initial residual = 0.103017, Final residual = 0.00440899, No Iterations 1
DILUPBiCG:  Solving for Uy, Initial residual = 0.176802, Final residual = 0.00719156, No Iterations 1
DILUPBiCG:  Solving for Uz, Initial residual = 0.0293908, Final residual = 0.00164323, No Iterations 1
DILUPBiCG:  Solving for h, Initial residual = 0.0174144, Final residual = 0.000107322, No Iterations 1
DICPCG:  Solving for p, Initial residual = 0.0039736, Final residual = 3.95948e-05, No Iterations 154
time step continuity errors : sum local = 0.0104317, global = 0.00047559, cumulative = 0.00368396
rho max/min : 1.26703 0.75
DILUPBiCG:  Solving for epsilon, Initial residual = 0.0109577, Final residual = 0.000457878, No Iterations 1
DILUPBiCG:  Solving for k, Initial residual = 0.005455, Final residual = 0.000258194, No Iterations 1
ExecutionTime = 11.77 s  ClockTime = 12 s

 MassFlows:   nozzle = -3.7667e-05  coflow = -0.000868408  outlet = 0.000879762
Time = 48

DILUPBiCG:  Solving for Ux, Initial residual = 0.106244, Final residual = 0.0045556, No Iterations 1
DILUPBiCG:  Solving for Uy, Initial residual = 0.135855, Final residual = 0.00476542, No Iterations 1
DILUPBiCG:  Solving for Uz, Initial residual = 0.0286974, Final residual = 0.00152044, No Iterations 1
DILUPBiCG:  Solving for h, Initial residual = 0.028763, Final residual = 0.000290248, No Iterations 1
DICPCG:  Solving for p, Initial residual = 0.0803615, Final residual = 0.000604246, No Iterations 165
time step continuity errors : sum local = 0.00822126, global = 0.000189415, cumulative = 0.00387338
rho max/min : 1.16649 0.75
DILUPBiCG:  Solving for epsilon, Initial residual = 0.00778719, Final residual = 0.000500029, No Iterations 1
DILUPBiCG:  Solving for k, Initial residual = 0.00367859, Final residual = 0.000226312, No Iterations 1
ExecutionTime = 12.01 s  ClockTime = 13 s

 MassFlows:   nozzle = -1.88335e-05  coflow = -0.000863831  outlet = 0.000855843
Time = 49

DILUPBiCG:  Solving for Ux, Initial residual = 0.0959671, Final residual = 0.00363714, No Iterations 1
DILUPBiCG:  Solving for Uy, Initial residual = 0.263711, Final residual = 0.00998287, No Iterations 1
DILUPBiCG:  Solving for Uz, Initial residual = 0.0284983, Final residual = 0.00167817, No Iterations 1
DILUPBiCG:  Solving for h, Initial residual = 0.0173717, Final residual = 0.000229125, No Iterations 1
DICPCG:  Solving for p, Initial residual = 0.00418977, Final residual = 3.57104e-05, No Iterations 155
time step continuity errors : sum local = 0.00924108, global = -7.54887e-05, cumulative = 0.00379789
rho max/min : 1.5 0.934668
DILUPBiCG:  Solving for epsilon, Initial residual = 0.00871886, Final residual = 0.00052505, No Iterations 1
DILUPBiCG:  Solving for k, Initial residual = 0.0038329, Final residual = 0.000242533, No Iterations 1
ExecutionTime = 12.25 s  ClockTime = 13 s

 MassFlows:   nozzle = -1.88335e-05  coflow = -0.000844839  outlet = 0.000836581
Time = 50

DILUPBiCG:  Solving for Ux, Initial residual = 0.139212, Final residual = 0.00608029, No Iterations 1
DILUPBiCG:  Solving for Uy, Initial residual = 0.438237, Final residual = 0.0202102, No Iterations 1
DILUPBiCG:  Solving for Uz, Initial residual = 0.0275875, Final residual = 0.00156393, No Iterations 1
DILUPBiCG:  Solving for h, Initial residual = 0.0189714, Final residual = 9.56411e-05, No Iterations 1
DICPCG:  Solving for p, Initial residual = 0.00702187, Final residual = 5.77548e-05, No Iterations 166
time step continuity errors : sum local = 0.00838109, global = -0.000188862, cumulative = 0.00360903
rho max/min : 1.5 1.15361
DILUPBiCG:  Solving for epsilon, Initial residual = 0.00871592, Final residual = 0.000302995, No Iterations 1
DILUPBiCG:  Solving for k, Initial residual = 0.00409294, Final residual = 0.00014588, No Iterations 1
ExecutionTime = 12.49 s  ClockTime = 13 s

 MassFlows:   nozzle = -3.74071e-05  coflow = -0.000838636  outlet = 0.000848994
Time = 51

DILUPBiCG:  Solving for Ux, Initial residual = 0.134923, Final residual = 0.00362734, No Iterations 1
DILUPBiCG:  Solving for Uy, Initial residual = 0.405638, Final residual = 0.0119291, No Iterations 1
DILUPBiCG:  Solving for Uz, Initial residual = 0.0280591, Final residual = 0.00158227, No Iterations 1
DILUPBiCG:  Solving for h, Initial residual = 0.0131562, Final residual = 7.06275e-05, No Iterations 1
DICPCG:  Solving for p, Initial residual = 0.00343995, Final residual = 3.32344e-05, No Iterations 158
time step continuity errors : sum local = 0.0104663, global = -0.000270074, cumulative = 0.00333895
rho max/min : 1.5 1.16639
DILUPBiCG:  Solving for epsilon, Initial residual = 0.0106185, Final residual = 0.000364208, No Iterations 1
DILUPBiCG:  Solving for k, Initial residual = 0.00511491, Final residual = 0.000168939, No Iterations 1
ExecutionTime = 12.72 s  ClockTime = 13 s

 MassFlows:   nozzle = -3.7667e-05  coflow = -0.000855449  outlet = 0.000866066
Time = 52

DILUPBiCG:  Solving for Ux, Initial residual = 0.100464, Final residual = 0.00432735, No Iterations 1
DILUPBiCG:  Solving for Uy, Initial residual = 0.179244, Final residual = 0.0072524, No Iterations 1
DILUPBiCG:  Solving for Uz, Initial residual = 0.027536, Final residual = 0.00162129, No Iterations 1
DILUPBiCG:  Solving for h, Initial residual = 0.0164111, Final residual = 0.0001043, No Iterations 1
DICPCG:  Solving for p, Initial residual = 0.00363195, Final residual = 3.4925e-05, No Iterations 148
time step continuity errors : sum local = 0.00970984, global = -0.000234675, cumulative = 0.00310428
rho max/min : 1.26477 0.75
DILUPBiCG:  Solving for epsilon, Initial residual = 0.00993873, Final residual = 0.000404881, No Iterations 1
DILUPBiCG:  Solving for k, Initial residual = 0.00490869, Final residual = 0.000228625, No Iterations 1
ExecutionTime = 12.95 s  ClockTime = 13 s

 MassFlows:   nozzle = -3.7667e-05  coflow = -0.000868047  outlet = 0.000878446
Time = 53

DILUPBiCG:  Solving for Ux, Initial residual = 0.100227, Final residual = 0.00424578, No Iterations 1
DILUPBiCG:  Solving for Uy, Initial residual = 0.13432, Final residual = 0.0046664, No Iterations 1
DILUPBiCG:  Solving for Uz, Initial residual = 0.0273776, Final residual = 0.0015886, No Iterations 1
DILUPBiCG:  Solving for h, Initial residual = 0.0266875, Final residual = 0.00026056, No Iterations 1
DICPCG:  Solving for p, Initial residual = 0.0561632, Final residual = 0.000517899, No Iterations 164
time step continuity errors : sum local = 0.00974161, global = 0.00027255, cumulative = 0.00337683
rho max/min : 1.16643 0.75
DILUPBiCG:  Solving for epsilon, Initial residual = 0.00706688, Final residual = 0.000458384, No Iterations 1
DILUPBiCG:  Solving for k, Initial residual = 0.00327481, Final residual = 0.000206107, No Iterations 1
ExecutionTime = 13.18 s  ClockTime = 14 s

 MassFlows:   nozzle = -1.88335e-05  coflow = -0.000863005  outlet = 0.000854269
Time = 54

DILUPBiCG:  Solving for Ux, Initial residual = 0.0946495, Final residual = 0.00364271, No Iterations 1
DILUPBiCG:  Solving for Uy, Initial residual = 0.266681, Final residual = 0.0100575, No Iterations 1
DILUPBiCG:  Solving for Uz, Initial residual = 0.0272096, Final residual = 0.00151033, No Iterations 1
DILUPBiCG:  Solving for h, Initial residual = 0.0166173, Final residual = 0.000180362, No Iterations 1
DICPCG:  Solving for p, Initial residual = 0.00384812, Final residual = 3.00897e-05, No Iterations 155
time step continuity errors : sum local = 0.00827172, global = -0.000147971, cumulative = 0.00322886
rho max/min : 1.5 0.932055
DILUPBiCG:  Solving for epsilon, Initial residual = 0.0080413, Final residual = 0.000494247, No Iterations 1
DILUPBiCG:  Solving for k, Initial residual = 0.00341878, Final residual = 0.000223894, No Iterations 1
ExecutionTime = 13.43 s  ClockTime = 14 s

 MassFlows:   nozzle = -1.88335e-05  coflow = -0.000844752  outlet = 0.000835795
Time = 55

DILUPBiCG:  Solving for Ux, Initial residual = 0.13466, Final residual = 0.00588587, No Iterations 1
DILUPBiCG:  Solving for Uy, Initial residual = 0.446096, Final residual = 0.0205018, No Iterations 1
DILUPBiCG:  Solving for Uz, Initial residual = 0.0269144, Final residual = 0.00150941, No Iterations 1
DILUPBiCG:  Solving for h, Initial residual = 0.0178542, Final residual = 8.57503e-05, No Iterations 1
DICPCG:  Solving for p, Initial residual = 0.00664354, Final residual = 6.26063e-05, No Iterations 165
time step continuity errors : sum local = 0.00927173, global = -0.00025734, cumulative = 0.00297152
rho max/min : 1.5 1.15458
DILUPBiCG:  Solving for epsilon, Initial residual = 0.00796946, Final residual = 0.000269113, No Iterations 1
DILUPBiCG:  Solving for k, Initial residual = 0.00365382, Final residual = 0.000128958, No Iterations 1
ExecutionTime = 13.67 s  ClockTime = 14 s

 MassFlows:   nozzle = -3.72036e-05  coflow = -0.000839341  outlet = 0.000848827
Time = 56

DILUPBiCG:  Solving for Ux, Initial residual = 0.128901, Final residual = 0.00343009, No Iterations 1
DILUPBiCG:  Solving for Uy, Initial residual = 0.422175, Final residual = 0.0123607, No Iterations 1
DILUPBiCG:  Solving for Uz, Initial residual = 0.0268683, Final residual = 0.00146147, No Iterations 1
DILUPBiCG:  Solving for h, Initial residual = 0.0122936, Final residual = 6.47757e-05, No Iterations 1
DICPCG:  Solving for p, Initial residual = 0.00323137, Final residual = 3.02304e-05, No Iterations 157
time step continuity errors : sum local = 0.00999243, global = -0.000266237, cumulative = 0.00270528
rho max/min : 1.5 1.16639
DILUPBiCG:  Solving for epsilon, Initial residual = 0.00981772, Final residual = 0.000337612, No Iterations 1
DILUPBiCG:  Solving for k, Initial residual = 0.00463841, Final residual = 0.000153824, No Iterations 1
ExecutionTime = 13.9 s  ClockTime = 14 s

 MassFlows:   nozzle = -3.7667e-05  coflow = -0.0008558  outlet = 0.000865804
Time = 57

DILUPBiCG:  Solving for Ux, Initial residual = 0.0981513, Final residual = 0.00424968, No Iterations 1
DILUPBiCG:  Solving for Uy, Initial residual = 0.182474, Final residual = 0.00734929, No Iterations 1
DILUPBiCG:  Solving for Uz, Initial residual = 0.0268559, Final residual = 0.00157095, No Iterations 1
DILUPBiCG:  Solving for h, Initial residual = 0.0154595, Final residual = 0.00010041, No Iterations 1
DICPCG:  Solving for p, Initial residual = 0.00343214, Final residual = 3.39445e-05, No Iterations 151
time step continuity errors : sum local = 0.0098406, global = -0.000591246, cumulative = 0.00211403
rho max/min : 1.26299 0.75
DILUPBiCG:  Solving for epsilon, Initial residual = 0.00913286, Final residual = 0.000361563, No Iterations 1
DILUPBiCG:  Solving for k, Initial residual = 0.00444943, Final residual = 0.000204229, No Iterations 1
ExecutionTime = 14.14 s  ClockTime = 15 s

 MassFlows:   nozzle = -3.7667e-05  coflow = -0.000867668  outlet = 0.000877487
Time = 58

DILUPBiCG:  Solving for Ux, Initial residual = 0.0954904, Final residual = 0.00401593, No Iterations 1
DILUPBiCG:  Solving for Uy, Initial residual = 0.132636, Final residual = 0.004581, No Iterations 1
DILUPBiCG:  Solving for Uz, Initial residual = 0.0255955, Final residual = 0.00141202, No Iterations 1
DILUPBiCG:  Solving for h, Initial residual = 0.0249094, Final residual = 0.000236673, No Iterations 1
DICPCG:  Solving for p, Initial residual = 0.0482166, Final residual = 0.000401676, No Iterations 164
time step continuity errors : sum local = 0.0086614, global = 0.000308537, cumulative = 0.00242257
rho max/min : 1.16642 0.75
DILUPBiCG:  Solving for epsilon, Initial residual = 0.00646083, Final residual = 0.000422868, No Iterations 1
DILUPBiCG:  Solving for k, Initial residual = 0.00295199, Final residual = 0.000188969, No Iterations 1
ExecutionTime = 14.39 s  ClockTime = 15 s

 MassFlows:   nozzle = -1.88335e-05  coflow = -0.00086239  outlet = 0.000853218
Time = 59

DILUPBiCG:  Solving for Ux, Initial residual = 0.0929073, Final residual = 0.00361585, No Iterations 1
DILUPBiCG:  Solving for Uy, Initial residual = 0.26929, Final residual = 0.0101258, No Iterations 1
DILUPBiCG:  Solving for Uz, Initial residual = 0.0260627, Final residual = 0.00151727, No Iterations 1
DILUPBiCG:  Solving for h, Initial residual = 0.0158151, Final residual = 0.000152249, No Iterations 1
DICPCG:  Solving for p, Initial residual = 0.00363725, Final residual = 3.38693e-05, No Iterations 154
time step continuity errors : sum local = 0.00974079, global = -0.000137111, cumulative = 0.00228546
rho max/min : 1.5 0.928029
DILUPBiCG:  Solving for epsilon, Initial residual = 0.00747679, Final residual = 0.000470516, No Iterations 1
DILUPBiCG:  Solving for k, Initial residual = 0.00308707, Final residual = 0.000209097, No Iterations 1
ExecutionTime = 14.62 s  ClockTime = 15 s

 MassFlows:   nozzle = -1.88335e-05  coflow = -0.000844797  outlet = 0.000835457
Time = 60

DILUPBiCG:  Solving for Ux, Initial residual = 0.130228, Final residual = 0.00569531, No Iterations 1
DILUPBiCG:  Solving for Uy, Initial residual = 0.453742, Final residual = 0.0207864, No Iterations 1
DILUPBiCG:  Solving for Uz, Initial residual = 0.0263259, Final residual = 0.00156182, No Iterations 1
DILUPBiCG:  Solving for h, Initial residual = 0.0168296, Final residual = 7.75563e-05, No Iterations 1
DICPCG:  Solving for p, Initial residual = 0.00641858, Final residual = 5.54924e-05, No Iterations 165
time step continuity errors : sum local = 0.00835428, global = -0.000251722, cumulative = 0.00203374
rho max/min : 1.5 1.15528
DILUPBiCG:  Solving for epsilon, Initial residual = 0.00733638, Final residual = 0.000240572, No Iterations 1
DILUPBiCG:  Solving for k, Initial residual = 0.00328479, Final residual = 0.000113942, No Iterations 1
ExecutionTime = 14.86 s  ClockTime = 15 s

 MassFlows:   nozzle = -3.69386e-05  coflow = -0.00083997  outlet = 0.000848823
Time = 61

DILUPBiCG:  Solving for Ux, Initial residual = 0.123473, Final residual = 0.00327979, No Iterations 1
DILUPBiCG:  Solving for Uy, Initial residual = 0.439364, Final residual = 0.0128236, No Iterations 1
DILUPBiCG:  Solving for Uz, Initial residual = 0.0256074, Final residual = 0.00162963, No Iterations 1
DILUPBiCG:  Solving for h, Initial residual = 0.0115517, Final residual = 5.95884e-05, No Iterations 1
DICPCG:  Solving for p, Initial residual = 0.00309375, Final residual = 2.98564e-05, No Iterations 154
time step continuity errors : sum local = 0.0101904, global = -0.000258423, cumulative = 0.00177531
rho max/min : 1.5 1.16639
DILUPBiCG:  Solving for epsilon, Initial residual = 0.00912613, Final residual = 0.000319997, No Iterations 1
DILUPBiCG:  Solving for k, Initial residual = 0.00423694, Final residual = 0.000143806, No Iterations 1
ExecutionTime = 15.08 s  ClockTime = 16 s

 MassFlows:   nozzle = -3.7667e-05  coflow = -0.000856008  outlet = 0.000865663
Time = 62

DILUPBiCG:  Solving for Ux, Initial residual = 0.0958606, Final residual = 0.00416797, No Iterations 1
DILUPBiCG:  Solving for Uy, Initial residual = 0.18636, Final residual = 0.00747191, No Iterations 1
DILUPBiCG:  Solving for Uz, Initial residual = 0.0248623, Final residual = 0.00137431, No Iterations 1
DILUPBiCG:  Solving for h, Initial residual = 0.0145573, Final residual = 9.60044e-05, No Iterations 1
DICPCG:  Solving for p, Initial residual = 0.00329587, Final residual = 3.1389e-05, No Iterations 155
time step continuity errors : sum local = 0.00940184, global = -0.00026641, cumulative = 0.00150891
rho max/min : 1.26274 0.75
DILUPBiCG:  Solving for epsilon, Initial residual = 0.00844901, Final residual = 0.000325022, No Iterations 1
DILUPBiCG:  Solving for k, Initial residual = 0.0040591, Final residual = 0.000183165, No Iterations 1
ExecutionTime = 15.31 s  ClockTime = 16 s

 MassFlows:   nozzle = -3.7667e-05  coflow = -0.000867258  outlet = 0.000876817
Time = 63

DILUPBiCG:  Solving for Ux, Initial residual = 0.0914741, Final residual = 0.00382538, No Iterations 1
DILUPBiCG:  Solving for Uy, Initial residual = 0.130854, Final residual = 0.00450852, No Iterations 1
DILUPBiCG:  Solving for Uz, Initial residual = 0.0249813, Final residual = 0.00162313, No Iterations 1
DILUPBiCG:  Solving for h, Initial residual = 0.0233793, Final residual = 0.00021643, No Iterations 1
DICPCG:  Solving for p, Initial residual = 0.0453874, Final residual = 0.000447325, No Iterations 162
time step continuity errors : sum local = 0.0101497, global = 0.000440411, cumulative = 0.00194932
rho max/min : 1.16642 0.75
DILUPBiCG:  Solving for epsilon, Initial residual = 0.00595072, Final residual = 0.000392748, No Iterations 1
DILUPBiCG:  Solving for k, Initial residual = 0.0026871, Final residual = 0.000174499, No Iterations 1
ExecutionTime = 15.55 s  ClockTime = 16 s

 MassFlows:   nozzle = -1.88335e-05  coflow = -0.00086188  outlet = 0.000852481
Time = 64

DILUPBiCG:  Solving for Ux, Initial residual = 0.0908671, Final residual = 0.0035682, No Iterations 1
DILUPBiCG:  Solving for Uy, Initial residual = 0.27136, Final residual = 0.0101737, No Iterations 1
DILUPBiCG:  Solving for Uz, Initial residual = 0.0246394, Final residual = 0.001379, No Iterations 1
DILUPBiCG:  Solving for h, Initial residual = 0.0150973, Final residual = 0.000131838, No Iterations 1
DICPCG:  Solving for p, Initial residual = 0.00348757, Final residual = 2.84514e-05, No Iterations 154
time step continuity errors : sum local = 0.0084749, global = 3.39961e-05, cumulative = 0.00198331
rho max/min : 1.5 0.923035
DILUPBiCG:  Solving for epsilon, Initial residual = 0.0070048, Final residual = 0.000451704, No Iterations 1
DILUPBiCG:  Solving for k, Initial residual = 0.00281575, Final residual = 0.000197524, No Iterations 1
ExecutionTime = 15.78 s  ClockTime = 16 s

 MassFlows:   nozzle = -1.88335e-05  coflow = -0.000844907  outlet = 0.000835386
Time = 65

DILUPBiCG:  Solving for Ux, Initial residual = 0.125961, Final residual = 0.00551329, No Iterations 1
DILUPBiCG:  Solving for Uy, Initial residual = 0.460442, Final residual = 0.0210198, No Iterations 1
DILUPBiCG:  Solving for Uz, Initial residual = 0.0244978, Final residual = 0.00139414, No Iterations 1
DILUPBiCG:  Solving for h, Initial residual = 0.0158791, Final residual = 7.06688e-05, No Iterations 1
DICPCG:  Solving for p, Initial residual = 0.00626061, Final residual = 6.04709e-05, No Iterations 164
time step continuity errors : sum local = 0.0092203, global = -0.000273515, cumulative = 0.0017098
rho max/min : 1.5 1.15575
DILUPBiCG:  Solving for epsilon, Initial residual = 0.00681891, Final residual = 0.000217384, No Iterations 1
DILUPBiCG:  Solving for k, Initial residual = 0.00297125, Final residual = 0.000100767, No Iterations 1
ExecutionTime = 16.01 s  ClockTime = 17 s

 MassFlows:   nozzle = -3.66479e-05  coflow = -0.000840556  outlet = 0.000848921
Time = 66

DILUPBiCG:  Solving for Ux, Initial residual = 0.11841, Final residual = 0.00315445, No Iterations 1
DILUPBiCG:  Solving for Uy, Initial residual = 0.457649, Final residual = 0.0133217, No Iterations 1
DILUPBiCG:  Solving for Uz, Initial residual = 0.0250684, Final residual = 0.00143386, No Iterations 1
DILUPBiCG:  Solving for h, Initial residual = 0.0108643, Final residual = 5.49211e-05, No Iterations 1
DICPCG:  Solving for p, Initial residual = 0.00298813, Final residual = 2.61258e-05, No Iterations 153
time step continuity errors : sum local = 0.00911006, global = -0.000179713, cumulative = 0.00153008
rho max/min : 1.5 1.16639
DILUPBiCG:  Solving for epsilon, Initial residual = 0.00851915, Final residual = 0.000310273, No Iterations 1
DILUPBiCG:  Solving for k, Initial residual = 0.00389932, Final residual = 0.000137121, No Iterations 1
ExecutionTime = 16.24 s  ClockTime = 17 s

 MassFlows:   nozzle = -3.7667e-05  coflow = -0.00085615  outlet = 0.000865629
Time = 67

DILUPBiCG:  Solving for Ux, Initial residual = 0.093713, Final residual = 0.00408449, No Iterations 1
DILUPBiCG:  Solving for Uy, Initial residual = 0.190748, Final residual = 0.00761214, No Iterations 1
DILUPBiCG:  Solving for Uz, Initial residual = 0.0241395, Final residual = 0.00136772, No Iterations 1
DILUPBiCG:  Solving for h, Initial residual = 0.0137273, Final residual = 9.14809e-05, No Iterations 1
DICPCG:  Solving for p, Initial residual = 0.0031925, Final residual = 3.02999e-05, No Iterations 155
time step continuity errors : sum local = 0.00931895, global = -0.000101199, cumulative = 0.00142888
rho max/min : 1.2642 0.75
DILUPBiCG:  Solving for epsilon, Initial residual = 0.00787425, Final residual = 0.000295514, No Iterations 1
DILUPBiCG:  Solving for k, Initial residual = 0.0037323, Final residual = 0.000165249, No Iterations 1
ExecutionTime = 16.47 s  ClockTime = 17 s

 MassFlows:   nozzle = -3.7667e-05  coflow = -0.000866848  outlet = 0.000876281
Time = 68

DILUPBiCG:  Solving for Ux, Initial residual = 0.0878889, Final residual = 0.00365776, No Iterations 1
DILUPBiCG:  Solving for Uy, Initial residual = 0.129036, Final residual = 0.00444448, No Iterations 1
DILUPBiCG:  Solving for Uz, Initial residual = 0.0241157, Final residual = 0.00139166, No Iterations 1
DILUPBiCG:  Solving for h, Initial residual = 0.0220325, Final residual = 0.000199125, No Iterations 1
DICPCG:  Solving for p, Initial residual = 0.045025, Final residual = 0.000413862, No Iterations 157
time step continuity errors : sum local = 0.00939834, global = 0.00021708, cumulative = 0.00164596
rho max/min : 1.16642 0.75
DILUPBiCG:  Solving for epsilon, Initial residual = 0.00552708, Final residual = 0.000367026, No Iterations 1
DILUPBiCG:  Solving for k, Initial residual = 0.00246787, Final residual = 0.000162268, No Iterations 1
ExecutionTime = 16.7 s  ClockTime = 17 s

 MassFlows:   nozzle = -1.88335e-05  coflow = -0.00086143  outlet = 0.000851906
Time = 69

DILUPBiCG:  Solving for Ux, Initial residual = 0.0887956, Final residual = 0.0035119, No Iterations 1
DILUPBiCG:  Solving for Uy, Initial residual = 0.272912, Final residual = 0.0102011, No Iterations 1
DILUPBiCG:  Solving for Uz, Initial residual = 0.0250786, Final residual = 0.0013883, No Iterations 1
DILUPBiCG:  Solving for h, Initial residual = 0.0144329, Final residual = 0.00011555, No Iterations 1
DICPCG:  Solving for p, Initial residual = 0.0033771, Final residual = 3.31043e-05, No Iterations 153
time step continuity errors : sum local = 0.0101439, global = 6.91103e-05, cumulative = 0.00171507
rho max/min : 1.5 0.916174
DILUPBiCG:  Solving for epsilon, Initial residual = 0.00661303, Final residual = 0.000437097, No Iterations 1
DILUPBiCG:  Solving for k, Initial residual = 0.00259357, Final residual = 0.000188314, No Iterations 1
ExecutionTime = 16.92 s  ClockTime = 17 s

 MassFlows:   nozzle = -1.88335e-05  coflow = -0.00084504  outlet = 0.000835437
Time = 70

DILUPBiCG:  Solving for Ux, Initial residual = 0.121832, Final residual = 0.00534114, No Iterations 1
DILUPBiCG:  Solving for Uy, Initial residual = 0.466099, Final residual = 0.0211963, No Iterations 1
DILUPBiCG:  Solving for Uz, Initial residual = 0.0244691, Final residual = 0.00134168, No Iterations 1
DILUPBiCG:  Solving for h, Initial residual = 0.0150161, Final residual = 6.49395e-05, No Iterations 1
DICPCG:  Solving for p, Initial residual = 0.00614008, Final residual = 6.12616e-05, No Iterations 158
time step continuity errors : sum local = 0.0094391, global = -0.000285244, cumulative = 0.00142983
rho max/min : 1.5 1.15605
DILUPBiCG:  Solving for epsilon, Initial residual = 0.00638641, Final residual = 0.000198241, No Iterations 1
DILUPBiCG:  Solving for k, Initial residual = 0.00270887, Final residual = 9.04215e-05, No Iterations 1
ExecutionTime = 17.15 s  ClockTime = 18 s

 MassFlows:   nozzle = -3.63426e-05  coflow = -0.000841101  outlet = 0.000849056
Time = 71

DILUPBiCG:  Solving for Ux, Initial residual = 0.113555, Final residual = 0.00304286, No Iterations 1
DILUPBiCG:  Solving for Uy, Initial residual = 0.477402, Final residual = 0.0138652, No Iterations 1
DILUPBiCG:  Solving for Uz, Initial residual = 0.0242017, Final residual = 0.00147237, No Iterations 1
DILUPBiCG:  Solving for h, Initial residual = 0.0102368, Final residual = 5.0671e-05, No Iterations 1
DICPCG:  Solving for p, Initial residual = 0.0029159, Final residual = 2.55517e-05, No Iterations 151
time step continuity errors : sum local = 0.00903035, global = -5.36201e-05, cumulative = 0.00137621
rho max/min : 1.5 1.16639
DILUPBiCG:  Solving for epsilon, Initial residual = 0.0079819, Final residual = 0.000305331, No Iterations 1
DILUPBiCG:  Solving for k, Initial residual = 0.00360768, Final residual = 0.000133499, No Iterations 1
ExecutionTime = 17.38 s  ClockTime = 18 s

 MassFlows:   nozzle = -3.7667e-05  coflow = -0.000856252  outlet = 0.000865648
Time = 72

DILUPBiCG:  Solving for Ux, Initial residual = 0.0918013, Final residual = 0.00400093, No Iterations 1
DILUPBiCG:  Solving for Uy, Initial residual = 0.195628, Final residual = 0.00776882, No Iterations 1
DILUPBiCG:  Solving for Uz, Initial residual = 0.0237603, Final residual = 0.00142365, No Iterations 1
DILUPBiCG:  Solving for h, Initial residual = 0.0129677, Final residual = 8.72105e-05, No Iterations 1
DICPCG:  Solving for p, Initial residual = 0.0031124, Final residual = 2.53996e-05, No Iterations 156
time step continuity errors : sum local = 0.00798853, global = -0.000275082, cumulative = 0.00110113
rho max/min : 1.2679 0.75
DILUPBiCG:  Solving for epsilon, Initial residual = 0.00736996, Final residual = 0.000272401, No Iterations 1
DILUPBiCG:  Solving for k, Initial residual = 0.0034526, Final residual = 0.000149755, No Iterations 1
ExecutionTime = 17.62 s  ClockTime = 18 s

 MassFlows:   nozzle = -3.7667e-05  coflow = -0.000866453  outlet = 0.000875792
Time = 73

DILUPBiCG:  Solving for Ux, Initial residual = 0.0845878, Final residual = 0.00350684, No Iterations 1
DILUPBiCG:  Solving for Uy, Initial residual = 0.127088, Final residual = 0.00438372, No Iterations 1
DILUPBiCG:  Solving for Uz, Initial residual = 0.0237479, Final residual = 0.00141864, No Iterations 1
DILUPBiCG:  Solving for h, Initial residual = 0.0208217, Final residual = 0.000184039, No Iterations 1
DICPCG:  Solving for p, Initial residual = 0.0467878, Final residual = 0.000429078, No Iterations 158
time step continuity errors : sum local = 0.00931183, global = -0.000434325, cumulative = 0.000666805
rho max/min : 1.16641 0.75
DILUPBiCG:  Solving for epsilon, Initial residual = 0.00516523, Final residual = 0.000345083, No Iterations 1
DILUPBiCG:  Solving for k, Initial residual = 0.00228071, Final residual = 0.000151959, No Iterations 1
ExecutionTime = 17.86 s  ClockTime = 18 s

 MassFlows:   nozzle = -1.88335e-05  coflow = -0.000861028  outlet = 0.000851391
Time = 74

DILUPBiCG:  Solving for Ux, Initial residual = 0.0867727, Final residual = 0.00344894, No Iterations 1
DILUPBiCG:  Solving for Uy, Initial residual = 0.274041, Final residual = 0.0102084, No Iterations 1
DILUPBiCG:  Solving for Uz, Initial residual = 0.0235764, Final residual = 0.00134583, No Iterations 1
DILUPBiCG:  Solving for h, Initial residual = 0.0137736, Final residual = 0.000102189, No Iterations 1
DICPCG:  Solving for p, Initial residual = 0.00327691, Final residual = 3.08165e-05, No Iterations 154
time step continuity errors : sum local = 0.00966623, global = -0.000318018, cumulative = 0.000348787
rho max/min : 1.5 0.907104
DILUPBiCG:  Solving for epsilon, Initial residual = 0.00629245, Final residual = 0.000426041, No Iterations 1
DILUPBiCG:  Solving for k, Initial residual = 0.00241237, Final residual = 0.000181119, No Iterations 1
ExecutionTime = 18.08 s  ClockTime = 19 s

 MassFlows:   nozzle = -1.88335e-05  coflow = -0.000845181  outlet = 0.000835521
Time = 75

DILUPBiCG:  Solving for Ux, Initial residual = 0.117803, Final residual = 0.0051743, No Iterations 1
DILUPBiCG:  Solving for Uy, Initial residual = 0.470574, Final residual = 0.0213092, No Iterations 1
DILUPBiCG:  Solving for Uz, Initial residual = 0.0229064, Final residual = 0.00131688, No Iterations 1
DILUPBiCG:  Solving for h, Initial residual = 0.0142321, Final residual = 6.0101e-05, No Iterations 1
DICPCG:  Solving for p, Initial residual = 0.00603208, Final residual = 5.74594e-05, No Iterations 157
time step continuity errors : sum local = 0.00893923, global = 0.000235806, cumulative = 0.000584593
rho max/min : 1.5 1.15624
DILUPBiCG:  Solving for epsilon, Initial residual = 0.00602889, Final residual = 0.000182327, No Iterations 1
DILUPBiCG:  Solving for k, Initial residual = 0.00249942, Final residual = 8.26854e-05, No Iterations 1
ExecutionTime = 18.33 s  ClockTime = 19 s

 MassFlows:   nozzle = -3.60159e-05  coflow = -0.000841609  outlet = 0.000849296
Time = 76

DILUPBiCG:  Solving for Ux, Initial residual = 0.108827, Final residual = 0.00293736, No Iterations 1
DILUPBiCG:  Solving for Uy, Initial residual = 0.498931, Final residual = 0.0144653, No Iterations 1
DILUPBiCG:  Solving for Uz, Initial residual = 0.0231372, Final residual = 0.00155198, No Iterations 1
DILUPBiCG:  Solving for h, Initial residual = 0.00963609, Final residual = 4.67254e-05, No Iterations 1
DICPCG:  Solving for p, Initial residual = 0.00285457, Final residual = 2.73337e-05, No Iterations 157
time step continuity errors : sum local = 0.00972466, global = 0.000487703, cumulative = 0.0010723
rho max/min : 1.5 1.16639
DILUPBiCG:  Solving for epsilon, Initial residual = 0.00750341, Final residual = 0.000305071, No Iterations 1
DILUPBiCG:  Solving for k, Initial residual = 0.00337765, Final residual = 0.000133336, No Iterations 1
ExecutionTime = 18.56 s  ClockTime = 19 s

 MassFlows:   nozzle = -3.7667e-05  coflow = -0.000856328  outlet = 0.000865784
Time = 77

DILUPBiCG:  Solving for Ux, Initial residual = 0.0900756, Final residual = 0.00391778, No Iterations 1
DILUPBiCG:  Solving for Uy, Initial residual = 0.201139, Final residual = 0.00794599, No Iterations 1
DILUPBiCG:  Solving for Uz, Initial residual = 0.0225402, Final residual = 0.00127056, No Iterations 1
DILUPBiCG:  Solving for h, Initial residual = 0.0122708, Final residual = 8.33215e-05, No Iterations 1
DICPCG:  Solving for p, Initial residual = 0.00303462, Final residual = 2.73502e-05, No Iterations 156
time step continuity errors : sum local = 0.00877405, global = -0.000421752, cumulative = 0.000650543
rho max/min : 1.27342 0.75
DILUPBiCG:  Solving for epsilon, Initial residual = 0.00693122, Final residual = 0.000253316, No Iterations 1
DILUPBiCG:  Solving for k, Initial residual = 0.00320887, Final residual = 0.000136432, No Iterations 1
ExecutionTime = 18.78 s  ClockTime = 19 s

 MassFlows:   nozzle = -3.7667e-05  coflow = -0.000866076  outlet = 0.000875404
Time = 78

DILUPBiCG:  Solving for Ux, Initial residual = 0.0814958, Final residual = 0.00336855, No Iterations 1
DILUPBiCG:  Solving for Uy, Initial residual = 0.124991, Final residual = 0.00432471, No Iterations 1
DILUPBiCG:  Solving for Uz, Initial residual = 0.0222105, Final residual = 0.00132499, No Iterations 1
DILUPBiCG:  Solving for h, Initial residual = 0.0197438, Final residual = 0.000170578, No Iterations 1
DICPCG:  Solving for p, Initial residual = 0.0513101, Final residual = 0.000468803, No Iterations 164
time step continuity errors : sum local = 0.00921448, global = -0.000130096, cumulative = 0.000520448
rho max/min : 1.16641 0.75
DILUPBiCG:  Solving for epsilon, Initial residual = 0.00485086, Final residual = 0.000325108, No Iterations 1
DILUPBiCG:  Solving for k, Initial residual = 0.00211719, Final residual = 0.00014248, No Iterations 1
ExecutionTime = 19.01 s  ClockTime = 20 s

 MassFlows:   nozzle = -1.88335e-05  coflow = -0.000860672  outlet = 0.000851109
Time = 79

DILUPBiCG:  Solving for Ux, Initial residual = 0.0848117, Final residual = 0.00338128, No Iterations 1
DILUPBiCG:  Solving for Uy, Initial residual = 0.274616, Final residual = 0.0101923, No Iterations 1
DILUPBiCG:  Solving for Uz, Initial residual = 0.022436, Final residual = 0.00128099, No Iterations 1
DILUPBiCG:  Solving for h, Initial residual = 0.0131541, Final residual = 9.13179e-05, No Iterations 1
DICPCG:  Solving for p, Initial residual = 0.00319267, Final residual = 2.80162e-05, No Iterations 156
time step continuity errors : sum local = 0.00896099, global = -0.000330312, cumulative = 0.000190136
rho max/min : 1.5 0.897408
DILUPBiCG:  Solving for epsilon, Initial residual = 0.00602586, Final residual = 0.000417704, No Iterations 1
DILUPBiCG:  Solving for k, Initial residual = 0.00226276, Final residual = 0.000175219, No Iterations 1
ExecutionTime = 19.24 s  ClockTime = 20 s

 MassFlows:   nozzle = -1.88335e-05  coflow = -0.000845324  outlet = 0.000835716
Time = 80

DILUPBiCG:  Solving for Ux, Initial residual = 0.113884, Final residual = 0.00501261, No Iterations 1
DILUPBiCG:  Solving for Uy, Initial residual = 0.473551, Final residual = 0.021339, No Iterations 1
DILUPBiCG:  Solving for Uz, Initial residual = 0.0234903, Final residual = 0.00133142, No Iterations 1
DILUPBiCG:  Solving for h, Initial residual = 0.0135173, Final residual = 5.58142e-05, No Iterations 1
DICPCG:  Solving for p, Initial residual = 0.00593561, Final residual = 5.5527e-05, No Iterations 163
time step continuity errors : sum local = 0.00872838, global = 0.000285418, cumulative = 0.000475554
rho max/min : 1.5 1.15628
[...]
DILUPBiCG:  Solving for h, Initial residual = 0.000470836, Final residual = 6.39334e-08, No Iterations 2
DICPCG:  Solving for p, Initial residual = 0.550567, Final residual = 0.00521584, No Iterations 164
time step continuity errors : sum local = 263530, global = 15.2318, cumulative = 124800
rho max/min : 1.5 0.75
DILUPBiCG:  Solving for epsilon, Initial residual = 6.62863e-06, Final residual = 6.62863e-06, No Iterations 0
DILUPBiCG:  Solving for k, Initial residual = 9.09859e-06, Final residual = 9.09859e-06, No Iterations 0
ExecutionTime = 519.05 s  ClockTime = 522 s

 MassFlows:   nozzle = -3.7667e-05  coflow = -0.00109836  outlet = -878.385
Time = 2279

DILUPBiCG:  Solving for Ux, Initial residual = 0.0663167, Final residual = 0.00294823, No Iterations 1
DILUPBiCG:  Solving for Uy, Initial residual = 0.335657, Final residual = 0.0100639, No Iterations 1
DILUPBiCG:  Solving for Uz, Initial residual = 0.00615685, Final residual = 0.00020385, No Iterations 2
DILUPBiCG:  Solving for h, Initial residual = 0.000530015, Final residual = 4.15775e-05, No Iterations 1
DICPCG:  Solving for p, Initial residual = 0.673126, Final residual = 0.00656105, No Iterations 59
time step continuity errors : sum local = 179688, global = -42394.6, cumulative = 82405.2
rho max/min : 1.5 0.75
DILUPBiCG:  Solving for epsilon, Initial residual = 6.38684e-06, Final residual = 6.38684e-06, No Iterations 0
DILUPBiCG:  Solving for k, Initial residual = 8.12627e-06, Final residual = 8.12627e-06, No Iterations 0
ExecutionTime = 519.22 s  ClockTime = 522 s

 MassFlows:   nozzle = -1.88335e-05  coflow = -0.000549178  outlet = -449.526
Time = 2280

DILUPBiCG:  Solving for Ux, Initial residual = 0.0621604, Final residual = 0.00248629, No Iterations 1
DILUPBiCG:  Solving for Uy, Initial residual = 0.32701, Final residual = 0.00833161, No Iterations 1
DILUPBiCG:  Solving for Uz, Initial residual = 0.00619712, Final residual = 0.000115036, No Iterations 2
DILUPBiCG:  Solving for h, Initial residual = 0.000498422, Final residual = 6.88727e-08, No Iterations 2
DICPCG:  Solving for p, Initial residual = 0.581615, Final residual = 0.00558438, No Iterations 161
time step continuity errors : sum local = 234263, global = 198.347, cumulative = 82603.6
rho max/min : 1.5 0.75
DILUPBiCG:  Solving for epsilon, Initial residual = 2.86502e-06, Final residual = 2.86502e-06, No Iterations 0
DILUPBiCG:  Solving for k, Initial residual = 3.54481e-06, Final residual = 3.54481e-06, No Iterations 0
ExecutionTime = 519.45 s  ClockTime = 522 s

 MassFlows:   nozzle = -1.88335e-05  coflow = -0.000549178  outlet = -435.517
Time = 2281

DILUPBiCG:  Solving for Ux, Initial residual = 0.0652588, Final residual = 0.00282196, No Iterations 1
DILUPBiCG:  Solving for Uy, Initial residual = 0.303626, Final residual = 0.00834723, No Iterations 1
DILUPBiCG:  Solving for Uz, Initial residual = 0.0057672, Final residual = 4.87756e-05, No Iterations 2
DILUPBiCG:  Solving for h, Initial residual = 0.000430611, Final residual = 2.39068e-05, No Iterations 1
DICPCG:  Solving for p, Initial residual = 0.671173, Final residual = 0.00618456, No Iterations 153
time step continuity errors : sum local = 370518, global = 91.3959, cumulative = 82695
rho max/min : 1.5 0.75
DILUPBiCG:  Solving for epsilon, Initial residual = 2.96177e-06, Final residual = 2.96177e-06, No Iterations 0
DILUPBiCG:  Solving for k, Initial residual = 4.06357e-06, Final residual = 4.06357e-06, No Iterations 0
ExecutionTime = 519.68 s  ClockTime = 523 s

 MassFlows:   nozzle = -3.7667e-05  coflow = -0.00109836  outlet = -846.022
Time = 2282

DILUPBiCG:  Solving for Ux, Initial residual = 0.0537421, Final residual = 0.00260503, No Iterations 1
DILUPBiCG:  Solving for Uy, Initial residual = 0.255445, Final residual = 0.00697434, No Iterations 1
DILUPBiCG:  Solving for Uz, Initial residual = 0.00622459, Final residual = 0.000454004, No Iterations 1
DILUPBiCG:  Solving for h, Initial residual = 0.00049954, Final residual = 7.35905e-08, No Iterations 2
DICPCG:  Solving for p, Initial residual = 0.527431, Final residual = 0.00426897, No Iterations 161
time step continuity errors : sum local = 215936, global = 72.0711, cumulative = 82767
rho max/min : 1.5 0.75
DILUPBiCG:  Solving for epsilon, Initial residual = 6.28097e-06, Final residual = 6.28097e-06, No Iterations 0
DILUPBiCG:  Solving for k, Initial residual = 9.09113e-06, Final residual = 9.09113e-06, No Iterations 0
ExecutionTime = 519.92 s  ClockTime = 523 s

 MassFlows:   nozzle = -3.7667e-05  coflow = -0.00109836  outlet = -848.56
Time = 2283

DILUPBiCG:  Solving for Ux, Initial residual = 0.0597591, Final residual = 0.00266968, No Iterations 1
DILUPBiCG:  Solving for Uy, Initial residual = 0.283216, Final residual = 0.00828839, No Iterations 1
DILUPBiCG:  Solving for Uz, Initial residual = 0.00581971, Final residual = 0.000146138, No Iterations 2
DILUPBiCG:  Solving for h, Initial residual = 0.000534573, Final residual = 6.99478e-08, No Iterations 2
DICPCG:  Solving for p, Initial residual = 0.603747, Final residual = 0.00477252, No Iterations 167
time step continuity errors : sum local = 177868, global = 51.9807, cumulative = 82819
rho max/min : 1.5 0.75
DILUPBiCG:  Solving for epsilon, Initial residual = 7.91873e-06, Final residual = 7.91873e-06, No Iterations 0
DILUPBiCG:  Solving for k, Initial residual = 1.03112e-05, Final residual = 1.22001e-07, No Iterations 1
ExecutionTime = 520.15 s  ClockTime = 523 s

 MassFlows:   nozzle = -3.7667e-05  coflow = -0.00109836  outlet = -839.762
Time = 2284

DILUPBiCG:  Solving for Ux, Initial residual = 0.0660258, Final residual = 0.00308552, No Iterations 1
DILUPBiCG:  Solving for Uy, Initial residual = 0.238598, Final residual = 0.00631155, No Iterations 1
DILUPBiCG:  Solving for Uz, Initial residual = 0.0137116, Final residual = 0.000704223, No Iterations 1
DILUPBiCG:  Solving for h, Initial residual = 0.000886099, Final residual = 1.31803e-05, No Iterations 1
DICPCG:  Solving for p, Initial residual = 0.393133, Final residual = 0.00337668, No Iterations 168
time step continuity errors : sum local = 168817, global = 112.533, cumulative = 82931.6
rho max/min : 1.5 0.75
DILUPBiCG:  Solving for epsilon, Initial residual = 3.53679e-05, Final residual = 2.09373e-07, No Iterations 1
DILUPBiCG:  Solving for k, Initial residual = 0.000140711, Final residual = 1.86632e-06, No Iterations 1
ExecutionTime = 520.39 s  ClockTime = 523 s

 MassFlows:   nozzle = -1.88335e-05  coflow = -0.000549178  outlet = -443.737
Time = 2285

DILUPBiCG:  Solving for Ux, Initial residual = 0.0587344, Final residual = 0.000922637, No Iterations 1
DILUPBiCG:  Solving for Uy, Initial residual = 0.166014, Final residual = 0.00422656, No Iterations 1
DILUPBiCG:  Solving for Uz, Initial residual = 0.0241276, Final residual = 0.000925546, No Iterations 1
DILUPBiCG:  Solving for h, Initial residual = 0.000199669, Final residual = 1.28132e-06, No Iterations 1
DICPCG:  Solving for p, Initial residual = 0.650237, Final residual = 0.00641568, No Iterations 50
time step continuity errors : sum local = 327495, global = 66436.7, cumulative = 149368
rho max/min : 1.5 0.75
DILUPBiCG:  Solving for epsilon, Initial residual = 0.000335722, Final residual = 3.68877e-06, No Iterations 1
DILUPBiCG:  Solving for k, Initial residual = 0.00260073, Final residual = 6.5707e-05, No Iterations 1
ExecutionTime = 520.56 s  ClockTime = 523 s

 MassFlows:   nozzle = -3.7667e-05  coflow = -0.00109836  outlet = -878.413
Time = 2286

DILUPBiCG:  Solving for Ux, Initial residual = 0.310006, Final residual = 0.00077627, No Iterations 1
DILUPBiCG:  Solving for Uy, Initial residual = 0.40298, Final residual = 0.00396174, No Iterations 1
DILUPBiCG:  Solving for Uz, Initial residual = 0.0205263, Final residual = 0.00126061, No Iterations 1
DILUPBiCG:  Solving for h, Initial residual = 7.73417e-05, Final residual = 6.13442e-07, No Iterations 1
DICPCG:  Solving for p, Initial residual = 0.893847, Final residual = 0.00868912, No Iterations 65
time step continuity errors : sum local = 1.26799e+06, global = 475870, cumulative = 625238
rho max/min : 1.5 0.75
DILUPBiCG:  Solving for epsilon, Initial residual = 0.00221656, Final residual = 3.21948e-05, No Iterations 1
DILUPBiCG:  Solving for k, Initial residual = 0.00800582, Final residual = 0.00012812, No Iterations 1
ExecutionTime = 520.74 s  ClockTime = 524 s

 MassFlows:   nozzle = -3.7667e-05  coflow = -0.00109836  outlet = -1353.22
Time = 2287

DILUPBiCG:  Solving for Ux, Initial residual = 0.155725, Final residual = 0.000572073, No Iterations 1
DILUPBiCG:  Solving for Uy, Initial residual = 0.188266, Final residual = 0.000431987, No Iterations 1
DILUPBiCG:  Solving for Uz, Initial residual = 0.045998, Final residual = 0.00292952, No Iterations 1
DILUPBiCG:  Solving for h, Initial residual = 8.05332e-05, Final residual = 4.35526e-07, No Iterations 1
DICPCG:  Solving for p, Initial residual = 0.967255, Final residual = 0.00927767, No Iterations 164
time step continuity errors : sum local = 1.21325e+07, global = 98592.6, cumulative = 723831
rho max/min : 1.5 0.75
DILUPBiCG:  Solving for epsilon, Initial residual = 0.027162, Final residual = 0.00175254, No Iterations 1
DILUPBiCG:  Solving for k, Initial residual = 0.0135067, Final residual = 8.17275e-05, No Iterations 1
ExecutionTime = 520.97 s  ClockTime = 524 s

 MassFlows:   nozzle = -3.7667e-05  coflow = -0.00109836  outlet = -693.656
Time = 2288

DILUPBiCG:  Solving for Ux, Initial residual = 0.407852, Final residual = 6.75849e-05, No Iterations 1
DILUPBiCG:  Solving for Uy, Initial residual = 0.780284, Final residual = 0.00141151, No Iterations 1
DILUPBiCG:  Solving for Uz, Initial residual = 0.325419, Final residual = 1.4771e-05, No Iterations 1
DILUPBiCG:  Solving for h, Initial residual = 0.000328667, Final residual = 1.39091e-05, No Iterations 1
DICPCG:  Solving for p, Initial residual = 0.285573, Final residual = 0.00276996, No Iterations 166
time step continuity errors : sum local = 5.82523e+06, global = -7534.63, cumulative = 716296
rho max/min : 1.5 0.75
DILUPBiCG:  Solving for epsilon, Initial residual = 0.255583, Final residual = 3.15198e-05, No Iterations 1
DILUPBiCG:  Solving for k, Initial residual = 0.282888, Final residual = 0.000412222, No Iterations 1
ExecutionTime = 521.2 s  ClockTime = 524 s

 MassFlows:   nozzle = -3.7667e-05  coflow = -0.00109836  outlet = 17187.3
Time = 2289

DILUPBiCG:  Solving for Ux, Initial residual = 0.46858, Final residual = 0.00178212, No Iterations 1
DILUPBiCG:  Solving for Uy, Initial residual = 0.700572, Final residual = 0.000433655, No Iterations 1
DILUPBiCG:  Solving for Uz, Initial residual = 0.0553822, Final residual = 0.00237247, No Iterations 1
DILUPBiCG:  Solving for h, Initial residual = 0.00164718, Final residual = 1.96752e-08, No Iterations 2
DICPCG:  Solving for p, Initial residual = 0.962719, Final residual = 0.00824395, No Iterations 181
time step continuity errors : sum local = 5.24507e+09, global = 3.24033e+07, cumulative = 3.31196e+07
rho max/min : 1.5 1.5
DILUPBiCG:  Solving for epsilon, Initial residual = 0.955457, Final residual = 0.0853493, No Iterations 1
DILUPBiCG:  Solving for k, Initial residual = 0.069205, Final residual = 0.000734493, No Iterations 2
ExecutionTime = 521.45 s  ClockTime = 524 s

 MassFlows:   nozzle = -3.7667e-05  coflow = -0.00109836  outlet = 2.30022e+07
Time = 2290

DILUPBiCG:  Solving for Ux, Initial residual = 0.641483, Final residual = 0.000164378, No Iterations 1
DILUPBiCG:  Solving for Uy, Initial residual = 0.742119, Final residual = 0.00311486, No Iterations 1
DILUPBiCG:  Solving for Uz, Initial residual = 0.0331405, Final residual = 0.000586045, No Iterations 1
DILUPBiCG:  Solving for h, Initial residual = 2.64621e-05, Final residual = 4.27568e-07, No Iterations 1
DICPCG:  Solving for p, Initial residual = 0.907261, Final residual = 0.00867246, No Iterations 211
time step continuity errors : sum local = 6.49668e+09, global = 9.52561e+07, cumulative = 1.28376e+08
rho max/min : 1.5 0.75
DILUPBiCG:  Solving for epsilon, Initial residual = 0.166159, Final residual = 6.79823e-06, No Iterations 1
DILUPBiCG:  Solving for k, Initial residual = 0.454102, Final residual = 0.0380545, No Iterations 1
ExecutionTime = 521.71 s  ClockTime = 525 s

 MassFlows:   nozzle = -3.7667e-05  coflow = -0.00109836  outlet = 4.56684e+07
Time = 2291

DILUPBiCG:  Solving for Ux, Initial residual = 0.238863, Final residual = 0.00404766, No Iterations 1
DILUPBiCG:  Solving for Uy, Initial residual = 0.255516, Final residual = 0.00622426, No Iterations 1
DILUPBiCG:  Solving for Uz, Initial residual = 0.368173, Final residual = 0.00459663, No Iterations 1
DILUPBiCG:  Solving for h, Initial residual = 0.000611444, Final residual = 1.56359e-06, No Iterations 1
DICPCG:  Solving for p, Initial residual = 0.556408, Final residual = 0.00510497, No Iterations 228
time step continuity errors : sum local = 4.96141e+12, global = 2.1579e+10, cumulative = 2.17074e+10
rho max/min : 1.5 0.75
DILUPBiCG:  Solving for epsilon, Initial residual = 0.991364, Final residual = 0.0100458, No Iterations 1
DILUPBiCG:  Solving for k, Initial residual = 0.00214698, Final residual = 3.5042e-05, No Iterations 1
ExecutionTime = 521.99 s  ClockTime = 525 s

 MassFlows:   nozzle = -3.7667e-05  coflow = -0.00109836  outlet = -5.55738e+09
Time = 2292

DILUPBiCG:  Solving for Ux, Initial residual = 0.699197, Final residual = 9.44784e-08, No Iterations 1
DILUPBiCG:  Solving for Uy, Initial residual = 0.686067, Final residual = 1.13713e-05, No Iterations 1
DILUPBiCG:  Solving for Uz, Initial residual = 0.695971, Final residual = 4.7773e-06, No Iterations 1
DILUPBiCG:  Solving for h, Initial residual = 1.25634e-05, Final residual = 5.42209e-09, No Iterations 1
DICPCG:  Solving for p, Initial residual = 0.573719, Final residual = 0.00483589, No Iterations 267
time step continuity errors : sum local = 2.30416e+13, global = -8.48394e+10, cumulative = -6.3132e+10
rho max/min : 1.5 0.75
DILUPBiCG:  Solving for epsilon, Initial residual = 0.258411, Final residual = 9.49032e-08, No Iterations 1
DILUPBiCG:  Solving for k, Initial residual = 1.77764e-06, Final residual = 1.77764e-06, No Iterations 0
ExecutionTime = 522.28 s  ClockTime = 525 s

 MassFlows:   nozzle = -1.88335e-05  coflow = -0.000549178  outlet = 6.27183e+10
Time = 2293

DILUPBiCG:  Solving for Ux, Initial residual = 0.991292, Final residual = 0.0923123, No Iterations 1
DILUPBiCG:  Solving for Uy, Initial residual = 0.999677, Final residual = 0.0315254, No Iterations 1
DILUPBiCG:  Solving for Uz, Initial residual = 0.144268, Final residual = 0.0076571, No Iterations 1
DILUPBiCG:  Solving for h, Initial residual = 3.2269e-05, Final residual = 3.87833e-07, No Iterations 1
DICPCG:  Solving for p, Initial residual = 0.915552, Final residual = 0.00844992, No Iterations 263
time step continuity errors : sum local = 5.39372e+19, global = -8.2525e+16, cumulative = -8.25251e+16
rho max/min : 1.5 0.75
DILUPBiCG:  Solving for epsilon, Initial residual = 0.810707, Final residual = 0.0429094, No Iterations 1
DILUPBiCG:  Solving for k, Initial residual = 0.999422, Final residual = 0.0144799, No Iterations 2
ExecutionTime = 522.57 s  ClockTime = 525 s

 MassFlows:   nozzle = -3.7667e-05  coflow = -0.00109836  outlet = -8.57597e+16
Time = 2294

DILUPBiCG:  Solving for Ux, Initial residual = 0.636698, Final residual = 1.26529e-07, No Iterations 1
DILUPBiCG:  Solving for Uy, Initial residual = 0.762376, Final residual = 1.53077e-06, No Iterations 1
DILUPBiCG:  Solving for Uz, Initial residual = 0.650859, Final residual = 9.92884e-11, No Iterations 1
DILUPBiCG:  Solving for h, Initial residual = 1.08213e-05, Final residual = 1.01024e-10, No Iterations 1
DICPCG:  Solving for p, Initial residual = 0.999993, Final residual = 0.00846145, No Iterations 391
time step continuity errors : sum local = 2.44099e+19, global = 3.15801e+16, cumulative = -5.0945e+16
rho max/min : 1.5 0.75
DILUPBiCG:  Solving for epsilon, Initial residual = 0.216511, Final residual = 0.000519424, No Iterations 1
DILUPBiCG:  Solving for k, Initial residual = 3.43551e-05, Final residual = 1.67995e-06, No Iterations 1
ExecutionTime = 522.93 s  ClockTime = 526 s

 MassFlows:   nozzle = -1.88335e-05  coflow = -0.000549178  outlet = -1.19765e+17
Time = 2295

DILUPBiCG:  Solving for Ux, Initial residual = 0.493113, Final residual = 1.16297e-10, No Iterations 1
DILUPBiCG:  Solving for Uy, Initial residual = 0.204958, Final residual = 9.71795e-12, No Iterations 1
DILUPBiCG:  Solving for Uz, Initial residual = 0.146779, Final residual = 2.21129e-09, No Iterations 1
DILUPBiCG:  Solving for h, Initial residual = 1.42234e-06, Final residual = 1.42234e-06, No Iterations 0
DICPCG:  Solving for p, Initial residual = 0.968409, Final residual = 0.00807785, No Iterations 737
time step continuity errors : sum local = 2.55543e+28, global = -5.45092e+25, cumulative = -5.45092e+25
rho max/min : 1.5 0.75
DILUPBiCG:  Solving for epsilon, Initial residual = 0.981175, Final residual = 0.02599, No Iterations 1
DILUPBiCG:  Solving for k, Initial residual = 8.81732e-09, Final residual = 8.81732e-09, No Iterations 0
ExecutionTime = 523.49 s  ClockTime = 526 s

 MassFlows:   nozzle = -3.7667e-05  coflow = -0.00109836  outlet = -6.07294e+24
Time = 2296

DILUPBiCG:  Solving for Ux, Initial residual = 0.468995, Final residual = 0.00918638, No Iterations 1
DILUPBiCG:  Solving for Uy, Initial residual = 0.442747, Final residual = 0.00782896, No Iterations 1
DILUPBiCG:  Solving for Uz, Initial residual = 0.561608, Final residual = 0.00010361, No Iterations 1
DILUPBiCG:  Solving for h, Initial residual = 0.00332378, Final residual = 5.05761e-05, No Iterations 1
DICPCG:  Solving for p, Initial residual = 0.831072, Final residual = 0.00539175, No Iterations 445
time step continuity errors : sum local = 5.1529e+33, global = -7.90396e+32, cumulative = -7.90396e+32
rho max/min : 1.5 1.5
DILUPBiCG:  Solving for epsilon, Initial residual = 2.1956e-08, Final residual = 2.1956e-08, No Iterations 0
DILUPBiCG:  Solving for k, Initial residual = 0.940515, Final residual = 0.0757732, No Iterations 2
ExecutionTime = 523.89 s  ClockTime = 527 s

 MassFlows:   nozzle = -1.88335e-05  coflow = -0.000549178  outlet = 2.96679e+30
Time = 2297

DILUPBiCG:  Solving for Ux, Initial residual = 0.775553, Final residual = 0.000535293, No Iterations 1
DILUPBiCG:  Solving for Uy, Initial residual = 0.742299, Final residual = 0.00494722, No Iterations 1
DILUPBiCG:  Solving for Uz, Initial residual = 1.40206e-05, Final residual = 2.57619e-08, No Iterations 1
DILUPBiCG:  Solving for h, Initial residual = 1.98403e-05, Final residual = 4.65633e-08, No Iterations 1
DICPCG:  Solving for p, Initial residual = 0.999939, Final residual = 0.0080627, No Iterations 341
time step continuity errors : sum local = 1.67745e+34, global = 1.45447e+32, cumulative = -6.44949e+32
rho max/min : 1.5 0.75
DILUPBiCG:  Solving for epsilon, Initial residual = 0.228653, Final residual = 3.50588e-14, No Iterations 1
DILUPBiCG:  Solving for k, Initial residual = 1, Final residual = 0.0185707, No Iterations 1
ExecutionTime = 524.21 s  ClockTime = 527 s

 MassFlows:   nozzle = -3.7667e-05  coflow = -0.00109836  outlet = 6.78484e+31
Time = 2298

DILUPBiCG:  Solving for Ux, Initial residual = 0.673051, Final residual = 5.43103e-16, No Iterations 1
DILUPBiCG:  Solving for Uy, Initial residual = 0.890903, Final residual = 1.0468e-14, No Iterations 1
DILUPBiCG:  Solving for Uz, Initial residual = 0.0216123, Final residual = 4.18197e-15, No Iterations 1
DILUPBiCG:  Solving for h, Initial residual = 8.94355e-07, Final residual = 8.94355e-07, No Iterations 0
DICPCG:  Solving for p, Initial residual = 0.0324003, Final residual = 56.3845, No Iterations 1001
time step continuity errors : sum local = 7.39081e+65, global = -1.11282e+61, cumulative = -1.11282e+61
rho max/min : 1.5 0.75
