/*---------------------------------------------------------------------------*\
| =========                 |                                                 |
| \\      /  F ield         | OpenFOAM: The Open Source CFD Toolbox           |
|  \\    /   O peration     | Version:  1.7.x                                 |
|   \\  /    A nd           | Web:      www.OpenFOAM.com                      |
|    \\/     M anipulation  |                                                 |
\*---------------------------------------------------------------------------*/
Build  : 1.7.x-131caa989cd3
Exec   : lowmachSolver
Date   : Dec 18 2011
Time   : 14:11:45
Host   : dell
PID    : 26622
Case   : /home/piccinini/master/lowmachspray/trunk/cases/sydney/case
nProcs : 1
SigFpe : Enabling floating point exception trapping (FOAM_SIGFPE).

// * * * * * * * * * * * * * * * * * * * * * * * * * * * * * * * * * * * * * //
Create time

Create mesh for time = 0.33


Reading thermophysicalProperties
Selecting psiChemistryModel ODEChemistryModel<gasThermoPhysics>
Selecting thermodynamics package hsPsiMixtureThermo<reactingMixture<gasThermoPhysics>>
Selecting chemistryReader chemkinReader
Selecting chemistrySolver ode
Selecting ODE solver SIBS
ODEChemistryModel: Number of species = 5 and reactions = 1
Reading field U

Reading field pd

Reading/calculating face flux field phi

Creating turbulence model.

Selecting turbulence model type RASModel
Selecting RAS turbulence model kEpsilon
kEpsilonCoeffs
{
    Cmu             0.09;
    C1              1.44;
    C2              1.92;
    C3              -0.33;
    sigmak          1;
    sigmaEps        1.3;
    Prt             1;
}


Reading g
Reading combustion properties

Constructing Spray
Selecting injectorType myDefinedInjector
Selecting atomizationModel off
Selecting dragModel standardDragModel
Selecting evaporationModel standardEvaporationModel
Selecting heatTransferModel RanzMarshall
Selecting wallModel remove
Selecting breakupModel off
Selecting collisionModel off
Selecting dispersionModel stochasticDispersionRAS
Selecting injectorModel hollowConeInjector
Selecting pdfType RosinRammler
Average Velocity for injector 0: 31 m/s, injection pressure = 4.80796 bar
Constructing two dimensional spray injection.Calculated angle of wedge is 5 deg.
Courant Number mean: 0.00232102 max: 0.23137

Starting time loop

Courant Number mean: 0.00232102 max: 0.23137
--> FOAM Warning : 
    From function SolverInfo::SolverInfo(const dictionary& dict,const objectRegistry &obr)
    in file SolverInfo/SolverInfo.C at line 88
    Neither LES nor RANS found. Assuming no turbulence
Time = 0.330003

Evolving Spray
Solving chemistry
diagonal:  Solving for rho, Initial residual = 0, Final residual = 0, No Iterations 0
DILUPBiCG:  Solving for Ux, Initial residual = 5.16686e-06, Final residual = 5.18744e-10, No Iterations 1
DILUPBiCG:  Solving for Uy, Initial residual = 8.13125e-05, Final residual = 7.56578e-08, No Iterations 1
DILUPBiCG:  Solving for Uz, Initial residual = 0.000290533, Final residual = 1.6863e-10, No Iterations 2
DILUPBiCG:  Solving for aC3H6O, Initial residual = 3.24483e-07, Final residual = 4.31731e-10, No Iterations 1
DILUPBiCG:  Solving for O2, Initial residual = 4.86361e-07, Final residual = 3.367e-10, No Iterations 1
DILUPBiCG:  Solving for CO2, Initial residual = 0, Final residual = 0, No Iterations 0
DILUPBiCG:  Solving for H2O, Initial residual = 0, Final residual = 0, No Iterations 0
DILUPBiCG:  Solving for hs, Initial residual = 5.70002e-07, Final residual = 4.39632e-10, No Iterations 1
DICPCG:  Solving for pd, Initial residual = 0.793846, Final residual = 9.12297e-10, No Iterations 210
diagonal:  Solving for rho, Initial residual = 0, Final residual = 0, No Iterations 0
time step continuity errors : sum local = 4.45142e-16, global = -1.49371e-18, cumulative = -1.49371e-18
DICPCG:  Solving for pd, Initial residual = 0.00272875, Final residual = 8.70218e-10, No Iterations 188
diagonal:  Solving for rho, Initial residual = 0, Final residual = 0, No Iterations 0
time step continuity errors : sum local = 4.23336e-15, global = -1.07943e-17, cumulative = -1.2288e-17
DICPCG:  Solving for pd, Initial residual = 7.66295e-05, Final residual = 7.18621e-10, No Iterations 171
diagonal:  Solving for rho, Initial residual = 0, Final residual = 0, No Iterations 0
time step continuity errors : sum local = 3.46557e-15, global = -1.56598e-18, cumulative = -1.3854e-17
DICPCG:  Solving for pd, Initial residual = 1.04699e-05, Final residual = 8.6537e-10, No Iterations 158
diagonal:  Solving for rho, Initial residual = 0, Final residual = 0, No Iterations 0
time step continuity errors : sum local = 4.16896e-15, global = 4.90662e-17, cumulative = 3.52121e-17
DICPCG:  Solving for pd, Initial residual = 2.14532e-06, Final residual = 9.35223e-10, No Iterations 151
diagonal:  Solving for rho, Initial residual = 0, Final residual = 0, No Iterations 0
time step continuity errors : sum local = 4.49333e-15, global = 2.43973e-17, cumulative = 5.96094e-17
DILUPBiCG:  Solving for epsilon, Initial residual = 6.7952e-07, Final residual = 5.03327e-10, No Iterations 1
DILUPBiCG:  Solving for k, Initial residual = 1.44736e-07, Final residual = 1.91966e-10, No Iterations 1

Number of parcels in system.... | 29890
Injected liquid mass........... | 6.04895 mg
Liquid Mass in system.......... | 0.522817 mg
SMD, Dmax...................... | 16.0014 mu, 42.77 mu
Added gas mass................. | 5.52628 mg
Evaporation Continuity Error... | 0.000153201 mg
ExecutionTime = 27.36 s  ClockTime = 28 s
T max/min : 298 275.998
rho max/min : 1.28435 1.1644
pd max/min : 103880 100000

Courant Number mean: 0.00232345 max: 0.242796
 MassFlows:   nozzle = -3.43682e-05  coflow = -0.000852618  outlet = 0.00100772
Time = 0.330005

Evolving Spray
Solving chemistry
diagonal:  Solving for rho, Initial residual = 0, Final residual = 0, No Iterations 0
DILUPBiCG:  Solving for Ux, Initial residual = 0.000441567, Final residual = 1.19485e-10, No Iterations 2
DILUPBiCG:  Solving for Uy, Initial residual = 0.00661289, Final residual = 2.168e-09, No Iterations 2
DILUPBiCG:  Solving for Uz, Initial residual = 0.000167084, Final residual = 2.10787e-10, No Iterations 2
DILUPBiCG:  Solving for aC3H6O, Initial residual = 3.86132e-07, Final residual = 6.34265e-10, No Iterations 1
DILUPBiCG:  Solving for O2, Initial residual = 4.98868e-07, Final residual = 3.31986e-10, No Iterations 1
DILUPBiCG:  Solving for CO2, Initial residual = 0, Final residual = 0, No Iterations 0
DILUPBiCG:  Solving for H2O, Initial residual = 0, Final residual = 0, No Iterations 0
DILUPBiCG:  Solving for hs, Initial residual = 6.07695e-07, Final residual = 6.67139e-10, No Iterations 1
DICPCG:  Solving for pd, Initial residual = 0.0117473, Final residual = 9.23407e-10, No Iterations 198
diagonal:  Solving for rho, Initial residual = 0, Final residual = 0, No Iterations 0
time step continuity errors : sum local = 4.41673e-15, global = -6.16473e-18, cumulative = 5.34447e-17
DICPCG:  Solving for pd, Initial residual = 0.0171328, Final residual = 8.97898e-10, No Iterations 195
diagonal:  Solving for rho, Initial residual = 0, Final residual = 0, No Iterations 0
time step continuity errors : sum local = 8.24483e-16, global = -8.36661e-18, cumulative = 4.50781e-17
DICPCG:  Solving for pd, Initial residual = 0.000509496, Final residual = 7.26289e-10, No Iterations 179
diagonal:  Solving for rho, Initial residual = 0, Final residual = 0, No Iterations 0
time step continuity errors : sum local = 6.72685e-16, global = -2.90733e-18, cumulative = 4.21708e-17
DICPCG:  Solving for pd, Initial residual = 7.16111e-05, Final residual = 8.24876e-10, No Iterations 166
diagonal:  Solving for rho, Initial residual = 0, Final residual = 0, No Iterations 0
time step continuity errors : sum local = 7.29082e-16, global = -8.73433e-18, cumulative = 3.34364e-17
DICPCG:  Solving for pd, Initial residual = 1.47755e-05, Final residual = 7.9341e-10, No Iterations 163
diagonal:  Solving for rho, Initial residual = 0, Final residual = 0, No Iterations 0
time step continuity errors : sum local = 7.0622e-16, global = 2.18388e-18, cumulative = 3.56203e-17
DILUPBiCG:  Solving for epsilon, Initial residual = 6.52323e-07, Final residual = 5.0287e-10, No Iterations 1
DILUPBiCG:  Solving for k, Initial residual = 1.36449e-07, Final residual = 1.85845e-10, No Iterations 1

Number of parcels in system.... | 29891
Injected liquid mass........... | 6.04899 mg
Liquid Mass in system.......... | 0.522811 mg
SMD, Dmax...................... | 16.0006 mu, 42.7698 mu
Added gas mass................. | 5.52651 mg
Evaporation Continuity Error... | 0.000330423 mg
ExecutionTime = 31.8 s  ClockTime = 32 s
T max/min : 298 275.997
rho max/min : 1.28435 1.1644
pd max/min : 100000 99692.7

Courant Number mean: 0.00232327 max: 0.242796
 MassFlows:   nozzle = -3.43682e-05  coflow = -0.000852618  outlet = 0.00100758
Time = 0.330008

Evolving Spray
Solving chemistry
diagonal:  Solving for rho, Initial residual = 0, Final residual = 0, No Iterations 0
DILUPBiCG:  Solving for Ux, Initial residual = 5.85171e-05, Final residual = 5.81604e-09, No Iterations 1
DILUPBiCG:  Solving for Uy, Initial residual = 0.000582478, Final residual = 4.72111e-08, No Iterations 1
DILUPBiCG:  Solving for Uz, Initial residual = 0.000159073, Final residual = 2.27517e-10, No Iterations 2
DILUPBiCG:  Solving for aC3H6O, Initial residual = 3.81717e-07, Final residual = 7.36967e-10, No Iterations 1
DILUPBiCG:  Solving for O2, Initial residual = 4.70492e-07, Final residual = 3.24799e-10, No Iterations 1
DILUPBiCG:  Solving for CO2, Initial residual = 0, Final residual = 0, No Iterations 0
DILUPBiCG:  Solving for H2O, Initial residual = 0, Final residual = 0, No Iterations 0
DILUPBiCG:  Solving for hs, Initial residual = 5.8815e-07, Final residual = 7.28567e-10, No Iterations 1
DICPCG:  Solving for pd, Initial residual = 0.0146723, Final residual = 7.82875e-10, No Iterations 194
diagonal:  Solving for rho, Initial residual = 0, Final residual = 0, No Iterations 0
time step continuity errors : sum local = 7.18166e-16, global = -6.52413e-18, cumulative = 2.90962e-17
DICPCG:  Solving for pd, Initial residual = 0.024519, Final residual = 8.12395e-10, No Iterations 191
diagonal:  Solving for rho, Initial residual = 0, Final residual = 0, No Iterations 0
time step continuity errors : sum local = 3.78119e-16, global = -4.03418e-18, cumulative = 2.5062e-17
DICPCG:  Solving for pd, Initial residual = 0.000595887, Final residual = 7.62877e-10, No Iterations 178
diagonal:  Solving for rho, Initial residual = 0, Final residual = 0, No Iterations 0
time step continuity errors : sum local = 3.67445e-16, global = -5.28315e-18, cumulative = 1.97789e-17
DICPCG:  Solving for pd, Initial residual = 8.46895e-05, Final residual = 9.56378e-10, No Iterations 166
diagonal:  Solving for rho, Initial residual = 0, Final residual = 0, No Iterations 0
time step continuity errors : sum local = 3.59274e-16, global = -2.75252e-18, cumulative = 1.70263e-17
DICPCG:  Solving for pd, Initial residual = 1.83928e-05, Final residual = 9.66433e-10, No Iterations 162
diagonal:  Solving for rho, Initial residual = 0, Final residual = 0, No Iterations 0
time step continuity errors : sum local = 3.60216e-16, global = -2.47862e-18, cumulative = 1.45477e-17
DILUPBiCG:  Solving for epsilon, Initial residual = 6.3729e-07, Final residual = 5.1813e-10, No Iterations 1
DILUPBiCG:  Solving for k, Initial residual = 1.3187e-07, Final residual = 1.82102e-10, No Iterations 1

Number of parcels in system.... | 29892
Injected liquid mass........... | 6.04904 mg
Liquid Mass in system.......... | 0.522806 mg
SMD, Dmax...................... | 16 mu, 42.7696 mu
Added gas mass................. | 5.52674 mg
Evaporation Continuity Error... | 0.000503533 mg
ExecutionTime = 36.21 s  ClockTime = 37 s
T max/min : 298 275.998
rho max/min : 1.28435 1.1644
pd max/min : 100009 99949.2

Courant Number mean: 0.00232334 max: 0.242796
 MassFlows:   nozzle = -3.43682e-05  coflow = -0.000852618  outlet = 0.0010076
Time = 0.33001

Evolving Spray
Solving chemistry
diagonal:  Solving for rho, Initial residual = 0, Final residual = 0, No Iterations 0
DILUPBiCG:  Solving for Ux, Initial residual = 4.08673e-06, Final residual = 4.98444e-10, No Iterations 1
DILUPBiCG:  Solving for Uy, Initial residual = 0.000180152, Final residual = 3.78794e-08, No Iterations 1
DILUPBiCG:  Solving for Uz, Initial residual = 0.00016425, Final residual = 2.23573e-10, No Iterations 2
DILUPBiCG:  Solving for aC3H6O, Initial residual = 3.79708e-07, Final residual = 8.14522e-10, No Iterations 1
DILUPBiCG:  Solving for O2, Initial residual = 4.55488e-07, Final residual = 3.31499e-10, No Iterations 1
DILUPBiCG:  Solving for CO2, Initial residual = 0, Final residual = 0, No Iterations 0
DILUPBiCG:  Solving for H2O, Initial residual = 0, Final residual = 0, No Iterations 0
DILUPBiCG:  Solving for hs, Initial residual = 5.74339e-07, Final residual = 8.14387e-10, No Iterations 1
DICPCG:  Solving for pd, Initial residual = 0.0878102, Final residual = 9.77216e-10, No Iterations 192
diagonal:  Solving for rho, Initial residual = 0, Final residual = 0, No Iterations 0
time step continuity errors : sum local = 3.80644e-16, global = -4.61764e-18, cumulative = 9.93008e-18
DICPCG:  Solving for pd, Initial residual = 0.0168699, Final residual = 7.82407e-10, No Iterations 183
diagonal:  Solving for rho, Initial residual = 0, Final residual = 0, No Iterations 0
time step continuity errors : sum local = 3.7151e-16, global = -4.15159e-18, cumulative = 5.77849e-18
DICPCG:  Solving for pd, Initial residual = 0.000431984, Final residual = 9.02519e-10, No Iterations 165
diagonal:  Solving for rho, Initial residual = 0, Final residual = 0, No Iterations 0
time step continuity errors : sum local = 3.59536e-16, global = -2.53849e-18, cumulative = 3.24e-18
DICPCG:  Solving for pd, Initial residual = 6.67145e-05, Final residual = 9.36311e-10, No Iterations 160
diagonal:  Solving for rho, Initial residual = 0, Final residual = 0, No Iterations 0
time step continuity errors : sum local = 3.55049e-16, global = -5.04998e-18, cumulative = -1.80998e-18
DICPCG:  Solving for pd, Initial residual = 1.56242e-05, Final residual = 8.66298e-10, No Iterations 154
diagonal:  Solving for rho, Initial residual = 0, Final residual = 0, No Iterations 0
time step continuity errors : sum local = 3.47209e-16, global = -4.16577e-18, cumulative = -5.97575e-18
DILUPBiCG:  Solving for epsilon, Initial residual = 6.25279e-07, Final residual = 5.45345e-10, No Iterations 1
DILUPBiCG:  Solving for k, Initial residual = 1.29126e-07, Final residual = 1.73466e-10, No Iterations 1

Number of parcels in system.... | 29893
Injected liquid mass........... | 6.04908 mg
Liquid Mass in system.......... | 0.5228 mg
SMD, Dmax...................... | 16.0001 mu, 42.7694 mu
Added gas mass................. | 5.52696 mg
Evaporation Continuity Error... | 0.000673219 mg
ExecutionTime = 40.59 s  ClockTime = 41 s
T max/min : 298 275.996
rho max/min : 1.28436 1.1644
pd max/min : 100009 99950.4

Courant Number mean: 0.00232339 max: 0.242796
 MassFlows:   nozzle = -3.43682e-05  coflow = -0.000852618  outlet = 0.00100762
Time = 0.330013

Evolving Spray
Solving chemistry
diagonal:  Solving for rho, Initial residual = 0, Final residual = 0, No Iterations 0
DILUPBiCG:  Solving for Ux, Initial residual = 4.33556e-06, Final residual = 5.03901e-10, No Iterations 1
DILUPBiCG:  Solving for Uy, Initial residual = 0.000161992, Final residual = 4.6862e-08, No Iterations 1
DILUPBiCG:  Solving for Uz, Initial residual = 0.000229741, Final residual = 3.03731e-10, No Iterations 2
DILUPBiCG:  Solving for aC3H6O, Initial residual = 3.77856e-07, Final residual = 9.09578e-10, No Iterations 1
DILUPBiCG:  Solving for O2, Initial residual = 4.44013e-07, Final residual = 3.39568e-10, No Iterations 1
DILUPBiCG:  Solving for CO2, Initial residual = 0, Final residual = 0, No Iterations 0
DILUPBiCG:  Solving for H2O, Initial residual = 0, Final residual = 0, No Iterations 0
DILUPBiCG:  Solving for hs, Initial residual = 5.61616e-07, Final residual = 9.24322e-10, No Iterations 1
DICPCG:  Solving for pd, Initial residual = 0.074581, Final residual = 8.95024e-10, No Iterations 193
diagonal:  Solving for rho, Initial residual = 0, Final residual = 0, No Iterations 0
time step continuity errors : sum local = 3.84792e-16, global = -2.52893e-18, cumulative = -8.50468e-18
DICPCG:  Solving for pd, Initial residual = 0.0192437, Final residual = 8.24507e-10, No Iterations 184
diagonal:  Solving for rho, Initial residual = 0, Final residual = 0, No Iterations 0
time step continuity errors : sum local = 3.76242e-16, global = -4.27753e-18, cumulative = -1.27822e-17
DICPCG:  Solving for pd, Initial residual = 0.000498627, Final residual = 9.06715e-10, No Iterations 167
diagonal:  Solving for rho, Initial residual = 0, Final residual = 0, No Iterations 0
time step continuity errors : sum local = 3.68314e-16, global = -2.02692e-18, cumulative = -1.48091e-17
DICPCG:  Solving for pd, Initial residual = 7.71788e-05, Final residual = 7.95744e-10, No Iterations 161
diagonal:  Solving for rho, Initial residual = 0, Final residual = 0, No Iterations 0
time step continuity errors : sum local = 3.53136e-16, global = -1.52053e-18, cumulative = -1.63297e-17
DICPCG:  Solving for pd, Initial residual = 1.82002e-05, Final residual = 9.68856e-10, No Iterations 155
diagonal:  Solving for rho, Initial residual = 0, Final residual = 0, No Iterations 0
time step continuity errors : sum local = 3.44184e-16, global = -1.4839e-18, cumulative = -1.78136e-17
DILUPBiCG:  Solving for epsilon, Initial residual = 6.30244e-07, Final residual = 7.40364e-10, No Iterations 1
DILUPBiCG:  Solving for k, Initial residual = 1.42701e-07, Final residual = 1.91666e-10, No Iterations 1

Number of parcels in system.... | 29893
Injected liquid mass........... | 6.04913 mg
Liquid Mass in system.......... | 0.522762 mg
SMD, Dmax...................... | 16.0001 mu, 42.7692 mu
Added gas mass................. | 5.52717 mg
Evaporation Continuity Error... | 0.00080645 mg
ExecutionTime = 44.98 s  ClockTime = 45 s
T max/min : 298 275.995
rho max/min : 1.28437 1.1644
pd max/min : 100009 99952.7

Courant Number mean: 0.00232342 max: 0.633904
 MassFlows:   nozzle = -3.43682e-05  coflow = -0.000852618  outlet = 0.00100763
Time = 0.330015

Evolving Spray
Solving chemistry
diagonal:  Solving for rho, Initial residual = 0, Final residual = 0, No Iterations 0
DILUPBiCG:  Solving for Ux, Initial residual = 4.18069e-06, Final residual = 5.18385e-10, No Iterations 1
DILUPBiCG:  Solving for Uy, Initial residual = 0.000143102, Final residual = 4.6808e-08, No Iterations 1
DILUPBiCG:  Solving for Uz, Initial residual = 0.000218231, Final residual = 3.24589e-10, No Iterations 2
DILUPBiCG:  Solving for aC3H6O, Initial residual = 3.7618e-07, Final residual = 1.0176e-09, No Iterations 1
DILUPBiCG:  Solving for O2, Initial residual = 4.34833e-07, Final residual = 3.46002e-10, No Iterations 1
DILUPBiCG:  Solving for CO2, Initial residual = 0, Final residual = 0, No Iterations 0
DILUPBiCG:  Solving for H2O, Initial residual = 0, Final residual = 0, No Iterations 0
DILUPBiCG:  Solving for hs, Initial residual = 5.49323e-07, Final residual = 1.04656e-09, No Iterations 1
DICPCG:  Solving for pd, Initial residual = 0.087142, Final residual = 8.96812e-10, No Iterations 195
diagonal:  Solving for rho, Initial residual = 0, Final residual = 0, No Iterations 0
time step continuity errors : sum local = 3.829e-16, global = -4.03365e-18, cumulative = -2.18472e-17
DICPCG:  Solving for pd, Initial residual = 0.0248024, Final residual = 8.62609e-10, No Iterations 186
diagonal:  Solving for rho, Initial residual = 0, Final residual = 0, No Iterations 0
time step continuity errors : sum local = 3.72109e-16, global = -3.53056e-18, cumulative = -2.53778e-17
DICPCG:  Solving for pd, Initial residual = 0.000662927, Final residual = 7.63342e-10, No Iterations 174
diagonal:  Solving for rho, Initial residual = 0, Final residual = 0, No Iterations 0
time step continuity errors : sum local = 3.61088e-16, global = -4.19319e-18, cumulative = -2.9571e-17
DICPCG:  Solving for pd, Initial residual = 0.000105308, Final residual = 8.48105e-10, No Iterations 167
diagonal:  Solving for rho, Initial residual = 0, Final residual = 0, No Iterations 0
time step continuity errors : sum local = 3.50308e-16, global = -5.57199e-18, cumulative = -3.51429e-17
DICPCG:  Solving for pd, Initial residual = 2.51119e-05, Final residual = 7.39967e-10, No Iterations 160
diagonal:  Solving for rho, Initial residual = 0, Final residual = 0, No Iterations 0
time step continuity errors : sum local = 3.49077e-16, global = -2.96986e-18, cumulative = -3.81128e-17
DILUPBiCG:  Solving for epsilon, Initial residual = 6.12584e-07, Final residual = 7.16875e-10, No Iterations 1
DILUPBiCG:  Solving for k, Initial residual = 1.31848e-07, Final residual = 1.84505e-10, No Iterations 1

Number of parcels in system.... | 29894
Injected liquid mass........... | 6.04917 mg
Liquid Mass in system.......... | 0.522758 mg
SMD, Dmax...................... | 15.9996 mu, 42.769 mu
Added gas mass................. | 5.52739 mg
Evaporation Continuity Error... | 0.000969578 mg
ExecutionTime = 49.41 s  ClockTime = 50 s
T max/min : 298 275.99
rho max/min : 1.28438 1.1644
pd max/min : 100010 99954.3

Courant Number mean: 0.00232346 max: 0.409703
 MassFlows:   nozzle = -3.43682e-05  coflow = -0.000852618  outlet = 0.00100765
Time = 0.330018

Evolving Spray
Solving chemistry
diagonal:  Solving for rho, Initial residual = 0, Final residual = 0, No Iterations 0
DILUPBiCG:  Solving for Ux, Initial residual = 3.9602e-06, Final residual = 5.26659e-10, No Iterations 1
DILUPBiCG:  Solving for Uy, Initial residual = 0.000122942, Final residual = 3.67013e-08, No Iterations 1
DILUPBiCG:  Solving for Uz, Initial residual = 0.00018847, Final residual = 2.90542e-10, No Iterations 2
DILUPBiCG:  Solving for aC3H6O, Initial residual = 3.74315e-07, Final residual = 1.13371e-09, No Iterations 1
DILUPBiCG:  Solving for O2, Initial residual = 4.27619e-07, Final residual = 3.49559e-10, No Iterations 1
DILUPBiCG:  Solving for CO2, Initial residual = 0, Final residual = 0, No Iterations 0
DILUPBiCG:  Solving for H2O, Initial residual = 0, Final residual = 0, No Iterations 0
DILUPBiCG:  Solving for hs, Initial residual = 5.38485e-07, Final residual = 1.17372e-09, No Iterations 1
DICPCG:  Solving for pd, Initial residual = 0.120336, Final residual = 7.43025e-10, No Iterations 198
diagonal:  Solving for rho, Initial residual = 0, Final residual = 0, No Iterations 0
time step continuity errors : sum local = 3.85191e-16, global = -1.86538e-18, cumulative = -3.99782e-17
DICPCG:  Solving for pd, Initial residual = 0.0221147, Final residual = 9.97057e-10, No Iterations 185
diagonal:  Solving for rho, Initial residual = 0, Final residual = 0, No Iterations 0
time step continuity errors : sum local = 3.70172e-16, global = -2.73801e-18, cumulative = -4.27162e-17
DICPCG:  Solving for pd, Initial residual = 0.000586395, Final residual = 8.98384e-10, No Iterations 171
diagonal:  Solving for rho, Initial residual = 0, Final residual = 0, No Iterations 0
time step continuity errors : sum local = 3.60525e-16, global = -1.56642e-18, cumulative = -4.42826e-17
DICPCG:  Solving for pd, Initial residual = 9.21619e-05, Final residual = 9.78175e-10, No Iterations 164
diagonal:  Solving for rho, Initial residual = 0, Final residual = 0, No Iterations 0
time step continuity errors : sum local = 3.5531e-16, global = -5.16521e-18, cumulative = -4.94478e-17
DICPCG:  Solving for pd, Initial residual = 2.18921e-05, Final residual = 8.38452e-10, No Iterations 158
diagonal:  Solving for rho, Initial residual = 0, Final residual = 0, No Iterations 0
time step continuity errors : sum local = 3.42524e-16, global = -7.28437e-18, cumulative = -5.67322e-17
DILUPBiCG:  Solving for epsilon, Initial residual = 6.01924e-07, Final residual = 9.13174e-10, No Iterations 1
DILUPBiCG:  Solving for k, Initial residual = 1.30687e-07, Final residual = 1.69919e-10, No Iterations 1

Number of parcels in system.... | 29895
Injected liquid mass........... | 6.04922 mg
Liquid Mass in system.......... | 0.522753 mg
SMD, Dmax...................... | 15.9996 mu, 42.7688 mu
Added gas mass................. | 5.5276 mg
Evaporation Continuity Error... | 0.00112967 mg
ExecutionTime = 53.84 s  ClockTime = 54 s
T max/min : 298 275.989
rho max/min : 1.28439 1.1644
pd max/min : 100010 99958.5

Courant Number mean: 0.00232349 max: 0.288024
 MassFlows:   nozzle = -3.43682e-05  coflow = -0.000852618  outlet = 0.00100766
Time = 0.33002

Evolving Spray
